<?xml version='1.0' encoding='utf-8'?>
<routes>
  <vType id="car" vClass="passenger" length="4.5" maxSpeed="50.0" accel="2.6" decel="4.5" sigma="0.5" jmTimegapMinor="1.5" />
  <vType id="emergency" vClass="emergency" length="6.5" maxSpeed="38.89" accel="3.0" decel="5.0" sigma="0.0" speedFactor="1.0" jmDriveAfterRedTime="3" jmIgnoreKeepClearTime="3" color="1,0,0" />
  <trip id="veh_1" type="car" depart="0.0" from="-27195187#3" to="113815194" departLane="best" fromTaz="snv_syd" toTaz="e18_vest" />
  <trip id="veh_174" type="car" depart="0.0" from="-27195187#3" to="362382740" departLane="best" fromTaz="snv_syd" toTaz="e18_ost" />
  <trip id="veh_391" type="car" depart="0.0" from="-27195187#3" to="313965530#1" departLane="best" fromTaz="snv_syd" toTaz="snv_nordost" />
  <trip id="veh_434" type="car" depart="0.0" from="-27195187#3" to="32321957" departLane="best" fromTaz="snv_syd" toTaz="wideroe_nordvest" />
  <trip id="veh_542" type="car" depart="0.0" from="-27195187#3" to="-1014336997" departLane="best" fromTaz="snv_syd" toTaz="odd_nansens_vest" />
  <trip id="veh_565" type="car" depart="0.0" from="-27195187#3" to="27194983" departLane="best" fromTaz="snv_syd" toTaz="snv_east" />
  <trip id="veh_571" type="car" depart="0.0" from="-27195187#3" to="52975954" departLane="best" fromTaz="snv_syd" toTaz="martin_linges_sydost" />
  <trip id="veh_599" type="car" depart="0.0" from="-27195187#3" to="-27184811#3" departLane="best" fromTaz="snv_syd" toTaz="rolfsbukt_syd" />
  <trip id="veh_687" type="car" depart="0.0" from="-53141119" to="113815194" departLane="best" fromTaz="bbv_west" toTaz="e18_vest" />
  <trip id="veh_688" type="car" depart="0.0" from="-53141119" to="362382740" departLane="best" fromTaz="bbv_west" toTaz="e18_ost" />
  <trip id="veh_690" type="car" depart="0.0" from="-53141119" to="27194983" departLane="best" fromTaz="bbv_west" toTaz="snv_east" />
  <trip id="veh_720" type="car" depart="0.0" from="-53141119" to="52975954" departLane="best" fromTaz="bbv_west" toTaz="martin_linges_sydost" />
  <trip id="veh_870" type="car" depart="0.0" from="1071762868" to="53141119" departLane="best" fromTaz="e18_vest" toTaz="bbv_west" />
  <trip id="veh_872" type="car" depart="0.0" from="1071762868" to="32321957" departLane="best" fromTaz="e18_vest" toTaz="wideroe_nordvest" />
  <trip id="veh_1071" type="car" depart="0.0" from="1071762868" to="52975954" departLane="best" fromTaz="e18_vest" toTaz="martin_linges_sydost" />
  <trip id="veh_1101" type="car" depart="0.0" from="1071762868" to="-27184811#3" departLane="best" fromTaz="e18_vest" toTaz="rolfsbukt_syd" />
  <trip id="veh_1178" type="car" depart="0.0" from="13797031" to="27195187#2" departLane="best" fromTaz="e18_ost" toTaz="snv_syd" />
  <trip id="veh_1298" type="car" depart="0.0" from="13797031" to="53141119" departLane="best" fromTaz="e18_ost" toTaz="bbv_west" />
  <trip id="veh_1300" type="car" depart="0.0" from="13797031" to="32321957" departLane="best" fromTaz="e18_ost" toTaz="wideroe_nordvest" />
  <trip id="veh_1456" type="car" depart="0.0" from="13797031" to="-1014336997" departLane="best" fromTaz="e18_ost" toTaz="odd_nansens_vest" />
  <trip id="veh_1465" type="car" depart="0.0" from="13797031" to="27194983" departLane="best" fromTaz="e18_ost" toTaz="snv_east" />
  <trip id="veh_1568" type="car" depart="0.0" from="131600897" to="27195187#2" departLane="best" fromTaz="ring3_nord" toTaz="snv_syd" />
  <trip id="veh_1620" type="car" depart="0.0" from="131600897" to="53141119" departLane="best" fromTaz="ring3_nord" toTaz="bbv_west" />
  <trip id="veh_1696" type="car" depart="0.0" from="131600897" to="52975954" departLane="best" fromTaz="ring3_nord" toTaz="martin_linges_sydost" />
  <trip id="veh_1707" type="car" depart="0.0" from="131600897" to="-27184811#3" departLane="best" fromTaz="ring3_nord" toTaz="rolfsbukt_syd" />
  <trip id="veh_1815" type="car" depart="0.0" from="466495265#0" to="-1014336997" departLane="best" fromTaz="snv_nordost" toTaz="odd_nansens_vest" />
  <trip id="veh_1821" type="car" depart="0.0" from="466495265#0" to="52975954" departLane="best" fromTaz="snv_nordost" toTaz="martin_linges_sydost" />
  <trip id="veh_1848" type="car" depart="0.0" from="32321958" to="27195187#2" departLane="best" fromTaz="wideroe_nordvest" toTaz="snv_syd" />
  <trip id="veh_2246" type="car" depart="0.0" from="32321958" to="53141119" departLane="best" fromTaz="wideroe_nordvest" toTaz="bbv_west" />
  <trip id="veh_2461" type="car" depart="0.0" from="32321958" to="362382740" departLane="best" fromTaz="wideroe_nordvest" toTaz="e18_ost" />
  <trip id="veh_2643" type="car" depart="0.0" from="32321958" to="13797030" departLane="best" fromTaz="wideroe_nordvest" toTaz="ring3_nord" />
  <trip id="veh_2773" type="car" depart="0.0" from="32321958" to="-1014336997" departLane="best" fromTaz="wideroe_nordvest" toTaz="odd_nansens_vest" />
  <trip id="veh_2834" type="car" depart="0.0" from="32321958" to="52975954" departLane="best" fromTaz="wideroe_nordvest" toTaz="martin_linges_sydost" />
  <trip id="veh_2923" type="car" depart="0.0" from="32321958" to="-27184811#3" departLane="best" fromTaz="wideroe_nordvest" toTaz="rolfsbukt_syd" />
  <trip id="veh_3152" type="car" depart="0.0" from="-53158894" to="362382740" departLane="best" fromTaz="odd_nansens_vest" toTaz="e18_ost" />
  <trip id="veh_3156" type="car" depart="0.0" from="-53158894" to="13797030" departLane="best" fromTaz="odd_nansens_vest" toTaz="ring3_nord" />
  <trip id="veh_3159" type="car" depart="0.0" from="-53158894" to="-27184811#3" departLane="best" fromTaz="odd_nansens_vest" toTaz="rolfsbukt_syd" />
  <trip id="veh_3177" type="car" depart="0.0" from="-27194983" to="113815194" departLane="best" fromTaz="snv_east" toTaz="e18_vest" />
  <trip id="veh_3280" type="car" depart="0.0" from="-27194983" to="362382740" departLane="best" fromTaz="snv_east" toTaz="e18_ost" />
  <trip id="veh_3436" type="car" depart="0.0" from="-27194983" to="32321957" departLane="best" fromTaz="snv_east" toTaz="wideroe_nordvest" />
  <trip id="veh_3514" type="car" depart="0.0" from="-27194983" to="52975954" departLane="best" fromTaz="snv_east" toTaz="martin_linges_sydost" />
  <trip id="veh_3518" type="car" depart="0.0" from="-27194983" to="-27184811#3" departLane="best" fromTaz="snv_east" toTaz="rolfsbukt_syd" />
  <trip id="veh_3528" type="car" depart="0.0" from="-52975954" to="27195187#2" departLane="best" fromTaz="martin_linges_sydost" toTaz="snv_syd" />
  <trip id="veh_3583" type="car" depart="0.0" from="-52975954" to="53141119" departLane="best" fromTaz="martin_linges_sydost" toTaz="bbv_west" />
  <trip id="veh_3584" type="car" depart="0.0" from="-52975954" to="113815194" departLane="best" fromTaz="martin_linges_sydost" toTaz="e18_vest" />
  <trip id="veh_3811" type="car" depart="0.0" from="-52975954" to="13797030" departLane="best" fromTaz="martin_linges_sydost" toTaz="ring3_nord" />
  <trip id="veh_3857" type="car" depart="0.0" from="-52975954" to="313965530#1" departLane="best" fromTaz="martin_linges_sydost" toTaz="snv_nordost" />
  <trip id="veh_3963" type="car" depart="0.0" from="-52975954" to="-1014336997" departLane="best" fromTaz="martin_linges_sydost" toTaz="odd_nansens_vest" />
  <trip id="veh_4047" type="car" depart="0.0" from="27184811#3" to="113815194" departLane="best" fromTaz="rolfsbukt_syd" toTaz="e18_vest" />
  <trip id="veh_4085" type="car" depart="0.0" from="27184811#3" to="362382740" departLane="best" fromTaz="rolfsbukt_syd" toTaz="e18_ost" />
  <trip id="veh_4118" type="car" depart="0.0" from="27184811#3" to="13797030" departLane="best" fromTaz="rolfsbukt_syd" toTaz="ring3_nord" />
  <trip id="veh_4132" type="car" depart="0.0" from="27184811#3" to="313965530#1" departLane="best" fromTaz="rolfsbukt_syd" toTaz="snv_nordost" />
  <trip id="veh_3501" type="car" depart="3.1" from="-27194983" to="-1014336997" departLane="best" fromTaz="snv_east" toTaz="odd_nansens_vest" />
  <trip id="veh_733" type="car" depart="4.3" from="1071762868" to="27195187#2" departLane="best" fromTaz="e18_vest" toTaz="snv_syd" />
  <trip id="veh_2252" type="car" depart="5.0" from="32321958" to="113815194" departLane="best" fromTaz="wideroe_nordvest" toTaz="e18_vest" />
  <trip id="veh_326" type="car" depart="5.0" from="-27195187#3" to="13797030" departLane="best" fromTaz="snv_syd" toTaz="ring3_nord" />
  <trip id="veh_3705" type="car" depart="5.3" from="-52975954" to="362382740" departLane="best" fromTaz="martin_linges_sydost" toTaz="e18_ost" />
  <trip id="veh_1621" type="car" depart="7.0" from="131600897" to="32321957" departLane="best" fromTaz="ring3_nord" toTaz="wideroe_nordvest" />
  <trip id="veh_2721" type="car" depart="8.2" from="32321958" to="313965530#1" departLane="best" fromTaz="wideroe_nordvest" toTaz="snv_nordost" />
  <trip id="veh_3887" type="car" depart="9.5" from="-52975954" to="32321957" departLane="best" fromTaz="martin_linges_sydost" toTaz="wideroe_nordvest" />
  <trip id="veh_1849" type="car" depart="10.9" from="32321958" to="27195187#2" departLane="best" fromTaz="wideroe_nordvest" toTaz="snv_syd" />
  <trip id="veh_2253" type="car" depart="12.4" from="32321958" to="113815194" departLane="best" fromTaz="wideroe_nordvest" toTaz="e18_vest" />
  <trip id="veh_1501" type="car" depart="13.8" from="13797031" to="-27184811#3" departLane="best" fromTaz="e18_ost" toTaz="rolfsbukt_syd" />
  <trip id="veh_2924" type="car" depart="14.8" from="32321958" to="-27184811#3" departLane="best" fromTaz="wideroe_nordvest" toTaz="rolfsbukt_syd" />
  <trip id="veh_2462" type="car" depart="16.3" from="32321958" to="362382740" departLane="best" fromTaz="wideroe_nordvest" toTaz="e18_ost" />
  <trip id="veh_1770" type="car" depart="17.2" from="466495271#0" to="32321957" departLane="best" fromTaz="snv_nordost" toTaz="wideroe_nordvest" />
  <trip id="veh_1850" type="car" depart="18.6" from="32321958" to="27195187#2" departLane="best" fromTaz="wideroe_nordvest" toTaz="snv_syd" />
  <trip id="veh_1301" type="car" depart="19.1" from="13797031" to="32321957" departLane="best" fromTaz="e18_ost" toTaz="wideroe_nordvest" />
  <trip id="veh_873" type="car" depart="20.8" from="1071762868" to="32321957" departLane="best" fromTaz="e18_vest" toTaz="wideroe_nordvest" />
  <trip id="veh_1474" type="car" depart="21.7" from="13797031" to="52975954" departLane="best" fromTaz="e18_ost" toTaz="martin_linges_sydost" />
  <trip id="veh_1736" type="car" depart="22.4" from="466495271#0" to="27195187#2" departLane="best" fromTaz="snv_nordost" toTaz="snv_syd" />
  <trip id="veh_3983" type="car" depart="22.9" from="-52975954" to="-27184811#3" departLane="best" fromTaz="martin_linges_sydost" toTaz="rolfsbukt_syd" />
  <trip id="veh_1179" type="car" depart="22.9" from="13797031" to="27195187#2" departLane="best" fromTaz="e18_ost" toTaz="snv_syd" />
  <trip id="veh_2" type="car" depart="23.0" from="-27195187#3" to="113815194" departLane="best" fromTaz="snv_syd" toTaz="e18_vest" />
  <trip id="veh_3371" type="car" depart="24.2" from="-27194983" to="13797030" departLane="best" fromTaz="snv_east" toTaz="ring3_nord" />
  <trip id="veh_670" type="car" depart="24.9" from="-53141119" to="27195187#2" departLane="best" fromTaz="bbv_west" toTaz="snv_syd" />
  <trip id="veh_1851" type="car" depart="25.1" from="32321958" to="27195187#2" departLane="best" fromTaz="wideroe_nordvest" toTaz="snv_syd" />
  <trip id="veh_175" type="car" depart="27.3" from="-27195187#3" to="362382740" departLane="best" fromTaz="snv_syd" toTaz="e18_ost" />
  <trip id="veh_4172" type="car" depart="28.3" from="27184811#3" to="52975954" departLane="best" fromTaz="rolfsbukt_syd" toTaz="martin_linges_sydost" />
  <trip id="veh_3585" type="car" depart="28.7" from="-52975954" to="113815194" departLane="best" fromTaz="martin_linges_sydost" toTaz="e18_vest" />
  <trip id="veh_3178" type="car" depart="29.5" from="-27194983" to="113815194" departLane="best" fromTaz="snv_east" toTaz="e18_vest" />
  <trip id="veh_734" type="car" depart="29.6" from="1071762868" to="27195187#2" departLane="best" fromTaz="e18_vest" toTaz="snv_syd" />
  <trip id="veh_2835" type="car" depart="30.3" from="32321958" to="52975954" departLane="best" fromTaz="wideroe_nordvest" toTaz="martin_linges_sydost" />
  <trip id="veh_1061" type="car" depart="31.8" from="1071762868" to="27194983" departLane="best" fromTaz="e18_vest" toTaz="snv_east" />
  <trip id="veh_3160" type="car" depart="32.2" from="-27194983" to="27195187#2" departLane="best" fromTaz="snv_east" toTaz="snv_syd" />
  <trip id="veh_2804" type="car" depart="32.6" from="32321958" to="27194983" departLane="best" fromTaz="wideroe_nordvest" toTaz="snv_east" />
  <trip id="veh_2925" type="car" depart="33.3" from="32321958" to="-27184811#3" departLane="best" fromTaz="wideroe_nordvest" toTaz="rolfsbukt_syd" />
  <trip id="veh_4142" type="car" depart="33.4" from="27184811#3" to="32321957" departLane="best" fromTaz="rolfsbukt_syd" toTaz="wideroe_nordvest" />
  <trip id="veh_1852" type="car" depart="34.4" from="32321958" to="27195187#2" departLane="best" fromTaz="wideroe_nordvest" toTaz="snv_syd" />
  <trip id="veh_2254" type="car" depart="34.6" from="32321958" to="113815194" departLane="best" fromTaz="wideroe_nordvest" toTaz="e18_vest" />
  <trip id="veh_435" type="car" depart="35.2" from="-27195187#3" to="32321957" departLane="best" fromTaz="snv_syd" toTaz="wideroe_nordvest" />
  <trip id="veh_2644" type="car" depart="35.5" from="32321958" to="13797030" departLane="best" fromTaz="wideroe_nordvest" toTaz="ring3_nord" />
  <trip id="veh_3" type="car" depart="35.8" from="-27195187#3" to="113815194" departLane="best" fromTaz="snv_syd" toTaz="e18_vest" />
  <trip id="veh_3410" type="car" depart="36.5" from="-27194983" to="313965530#1" departLane="best" fromTaz="snv_east" toTaz="snv_nordost" />
  <trip id="veh_600" type="car" depart="37.1" from="-27195187#3" to="-27184811#3" departLane="best" fromTaz="snv_syd" toTaz="rolfsbukt_syd" />
  <trip id="veh_2463" type="car" depart="37.9" from="32321958" to="362382740" departLane="best" fromTaz="wideroe_nordvest" toTaz="e18_ost" />
  <trip id="veh_3706" type="car" depart="39.0" from="-52975954" to="362382740" departLane="best" fromTaz="martin_linges_sydost" toTaz="e18_ost" />
  <trip id="veh_1302" type="car" depart="39.5" from="13797031" to="32321957" departLane="best" fromTaz="e18_ost" toTaz="wideroe_nordvest" />
  <trip id="veh_327" type="car" depart="40.3" from="-27195187#3" to="13797030" departLane="best" fromTaz="snv_syd" toTaz="ring3_nord" />
  <trip id="veh_3281" type="car" depart="41.1" from="-27194983" to="362382740" departLane="best" fromTaz="snv_east" toTaz="e18_ost" />
  <trip id="veh_1622" type="car" depart="41.3" from="131600897" to="32321957" departLane="best" fromTaz="ring3_nord" toTaz="wideroe_nordvest" />
  <trip id="veh_1692" type="car" depart="41.9" from="131600897" to="27194983" departLane="best" fromTaz="ring3_nord" toTaz="snv_east" />
  <trip id="veh_1853" type="car" depart="44.9" from="32321958" to="27195187#2" departLane="best" fromTaz="wideroe_nordvest" toTaz="snv_syd" />
  <trip id="veh_1829" type="car" depart="45.1" from="466495265#0" to="-27184811#3" departLane="best" fromTaz="snv_nordost" toTaz="rolfsbukt_syd" />
  <trip id="veh_3888" type="car" depart="45.8" from="-52975954" to="32321957" departLane="best" fromTaz="martin_linges_sydost" toTaz="wideroe_nordvest" />
  <trip id="veh_874" type="car" depart="46.0" from="1071762868" to="32321957" departLane="best" fromTaz="e18_vest" toTaz="wideroe_nordvest" />
  <trip id="veh_735" type="car" depart="47.1" from="1071762868" to="27195187#2" departLane="best" fromTaz="e18_vest" toTaz="snv_syd" />
  <trip id="veh_4030" type="car" depart="47.7" from="27184811#3" to="27195187#2" departLane="best" fromTaz="rolfsbukt_syd" toTaz="snv_syd" />
  <trip id="veh_2926" type="car" depart="48.7" from="32321958" to="-27184811#3" departLane="best" fromTaz="wideroe_nordvest" toTaz="rolfsbukt_syd" />
  <trip id="veh_1854" type="car" depart="52.1" from="32321958" to="27195187#2" departLane="best" fromTaz="wideroe_nordvest" toTaz="snv_syd" />
  <trip id="veh_176" type="car" depart="52.2" from="-27195187#3" to="362382740" departLane="best" fromTaz="snv_syd" toTaz="e18_ost" />
  <trip id="veh_2722" type="car" depart="52.5" from="32321958" to="313965530#1" departLane="best" fromTaz="wideroe_nordvest" toTaz="snv_nordost" />
  <trip id="veh_2464" type="car" depart="53.8" from="32321958" to="362382740" departLane="best" fromTaz="wideroe_nordvest" toTaz="e18_ost" />
  <trip id="veh_2255" type="car" depart="53.9" from="32321958" to="113815194" departLane="best" fromTaz="wideroe_nordvest" toTaz="e18_vest" />
  <trip id="veh_1050" type="car" depart="55.1" from="1071762868" to="-1014336997" departLane="best" fromTaz="e18_vest" toTaz="odd_nansens_vest" />
  <trip id="veh_4" type="car" depart="59.1" from="-27195187#3" to="113815194" departLane="best" fromTaz="snv_syd" toTaz="e18_vest" />
  <trip id="veh_1102" type="car" depart="59.4" from="1071762868" to="-27184811#3" departLane="best" fromTaz="e18_vest" toTaz="rolfsbukt_syd" />
  <trip id="veh_1855" type="car" depart="60.7" from="32321958" to="27195187#2" departLane="best" fromTaz="wideroe_nordvest" toTaz="snv_syd" />
  <trip id="veh_3586" type="car" depart="61.0" from="-52975954" to="113815194" departLane="best" fromTaz="martin_linges_sydost" toTaz="e18_vest" />
  <trip id="veh_2927" type="car" depart="61.2" from="32321958" to="-27184811#3" departLane="best" fromTaz="wideroe_nordvest" toTaz="rolfsbukt_syd" />
  <trip id="veh_875" type="car" depart="61.7" from="1071762868" to="32321957" departLane="best" fromTaz="e18_vest" toTaz="wideroe_nordvest" />
  <trip id="veh_1502" type="car" depart="63.4" from="13797031" to="-27184811#3" departLane="best" fromTaz="e18_ost" toTaz="rolfsbukt_syd" />
  <trip id="veh_3179" type="car" depart="65.0" from="-27194983" to="113815194" departLane="best" fromTaz="snv_east" toTaz="e18_vest" />
  <trip id="veh_177" type="car" depart="65.7" from="-27195187#3" to="362382740" departLane="best" fromTaz="snv_syd" toTaz="e18_ost" />
  <trip id="veh_1180" type="car" depart="67.7" from="13797031" to="27195187#2" departLane="best" fromTaz="e18_ost" toTaz="snv_syd" />
  <trip id="veh_436" type="car" depart="67.8" from="-27195187#3" to="32321957" departLane="best" fromTaz="snv_syd" toTaz="wideroe_nordvest" />
  <trip id="veh_3529" type="car" depart="67.8" from="-52975954" to="27195187#2" departLane="best" fromTaz="martin_linges_sydost" toTaz="snv_syd" />
  <trip id="veh_3707" type="car" depart="68.0" from="-52975954" to="362382740" departLane="best" fromTaz="martin_linges_sydost" toTaz="e18_ost" />
  <trip id="veh_3282" type="car" depart="68.1" from="-27194983" to="362382740" departLane="best" fromTaz="snv_east" toTaz="e18_ost" />
  <trip id="veh_392" type="car" depart="68.9" from="-27195187#3" to="313965530#1" departLane="best" fromTaz="snv_syd" toTaz="snv_nordost" />
  <trip id="veh_1856" type="car" depart="69.7" from="32321958" to="27195187#2" departLane="best" fromTaz="wideroe_nordvest" toTaz="snv_syd" />
  <trip id="veh_2256" type="car" depart="69.7" from="32321958" to="113815194" departLane="best" fromTaz="wideroe_nordvest" toTaz="e18_vest" />
  <trip id="veh_1303" type="car" depart="70.2" from="13797031" to="32321957" departLane="best" fromTaz="e18_ost" toTaz="wideroe_nordvest" />
  <trip id="veh_3437" type="car" depart="71.8" from="-27194983" to="32321957" departLane="best" fromTaz="snv_east" toTaz="wideroe_nordvest" />
  <trip id="veh_736" type="car" depart="75.9" from="1071762868" to="27195187#2" departLane="best" fromTaz="e18_vest" toTaz="snv_syd" />
  <trip id="veh_2465" type="car" depart="76.6" from="32321958" to="362382740" departLane="best" fromTaz="wideroe_nordvest" toTaz="e18_ost" />
  <trip id="veh_876" type="car" depart="77.4" from="1071762868" to="32321957" departLane="best" fromTaz="e18_vest" toTaz="wideroe_nordvest" />
  <trip id="veh_2928" type="car" depart="79.2" from="32321958" to="-27184811#3" departLane="best" fromTaz="wideroe_nordvest" toTaz="rolfsbukt_syd" />
  <trip id="veh_1103" type="car" depart="80.0" from="1071762868" to="-27184811#3" departLane="best" fromTaz="e18_vest" toTaz="rolfsbukt_syd" />
  <trip id="veh_3889" type="car" depart="81.9" from="-52975954" to="32321957" departLane="best" fromTaz="martin_linges_sydost" toTaz="wideroe_nordvest" />
  <trip id="veh_1857" type="car" depart="82.5" from="32321958" to="27195187#2" departLane="best" fromTaz="wideroe_nordvest" toTaz="snv_syd" />
  <trip id="veh_2836" type="car" depart="83.8" from="32321958" to="52975954" departLane="best" fromTaz="wideroe_nordvest" toTaz="martin_linges_sydost" />
  <trip id="veh_1569" type="car" depart="84.4" from="131600897" to="27195187#2" departLane="best" fromTaz="ring3_nord" toTaz="snv_syd" />
  <trip id="veh_1771" type="car" depart="85.0" from="466495271#0" to="32321957" departLane="best" fromTaz="snv_nordost" toTaz="wideroe_nordvest" />
  <trip id="veh_691" type="car" depart="85.2" from="-53141119" to="27194983" departLane="best" fromTaz="bbv_west" toTaz="snv_east" />
  <trip id="veh_5" type="car" depart="85.9" from="-27195187#3" to="113815194" departLane="best" fromTaz="snv_syd" toTaz="e18_vest" />
  <trip id="veh_1181" type="car" depart="89.2" from="13797031" to="27195187#2" departLane="best" fromTaz="e18_ost" toTaz="snv_syd" />
  <trip id="veh_2645" type="car" depart="89.5" from="32321958" to="13797030" departLane="best" fromTaz="wideroe_nordvest" toTaz="ring3_nord" />
  <trip id="veh_2257" type="car" depart="90.2" from="32321958" to="113815194" departLane="best" fromTaz="wideroe_nordvest" toTaz="e18_vest" />
  <trip id="veh_1858" type="car" depart="91.5" from="32321958" to="27195187#2" departLane="best" fromTaz="wideroe_nordvest" toTaz="snv_syd" />
  <trip id="veh_2466" type="car" depart="93.5" from="32321958" to="362382740" departLane="best" fromTaz="wideroe_nordvest" toTaz="e18_ost" />
  <trip id="veh_3984" type="car" depart="93.6" from="-52975954" to="-27184811#3" departLane="best" fromTaz="martin_linges_sydost" toTaz="rolfsbukt_syd" />
  <trip id="veh_1623" type="car" depart="94.1" from="131600897" to="32321957" departLane="best" fromTaz="ring3_nord" toTaz="wideroe_nordvest" />
  <trip id="veh_1304" type="car" depart="94.1" from="13797031" to="32321957" departLane="best" fromTaz="e18_ost" toTaz="wideroe_nordvest" />
  <trip id="veh_178" type="car" depart="94.2" from="-27195187#3" to="362382740" departLane="best" fromTaz="snv_syd" toTaz="e18_ost" />
  <trip id="veh_3587" type="car" depart="96.6" from="-52975954" to="113815194" departLane="best" fromTaz="martin_linges_sydost" toTaz="e18_vest" />
  <trip id="veh_737" type="car" depart="97.3" from="1071762868" to="27195187#2" departLane="best" fromTaz="e18_vest" toTaz="snv_syd" />
  <trip id="veh_1859" type="car" depart="97.9" from="32321958" to="27195187#2" departLane="best" fromTaz="wideroe_nordvest" toTaz="snv_syd" />
  <trip id="veh_2258" type="car" depart="99.4" from="32321958" to="113815194" departLane="best" fromTaz="wideroe_nordvest" toTaz="e18_vest" />
  <trip id="veh_3812" type="car" depart="99.5" from="-52975954" to="13797030" departLane="best" fromTaz="martin_linges_sydost" toTaz="ring3_nord" />
  <trip id="veh_2929" type="car" depart="100.9" from="32321958" to="-27184811#3" departLane="best" fromTaz="wideroe_nordvest" toTaz="rolfsbukt_syd" />
  <trip id="veh_877" type="car" depart="101.2" from="1071762868" to="32321957" departLane="best" fromTaz="e18_vest" toTaz="wideroe_nordvest" />
  <trip id="veh_3180" type="car" depart="101.7" from="-27194983" to="113815194" departLane="best" fromTaz="snv_east" toTaz="e18_vest" />
  <trip id="veh_724" type="car" depart="102.9" from="-53141119" to="-27184811#3" departLane="best" fromTaz="bbv_west" toTaz="rolfsbukt_syd" />
  <trip id="veh_437" type="car" depart="103.4" from="-27195187#3" to="32321957" departLane="best" fromTaz="snv_syd" toTaz="wideroe_nordvest" />
  <trip id="veh_6" type="car" depart="103.4" from="-27195187#3" to="113815194" departLane="best" fromTaz="snv_syd" toTaz="e18_vest" />
  <trip id="veh_4171" type="car" depart="104.1" from="27184811#3" to="27194983" departLane="best" fromTaz="rolfsbukt_syd" toTaz="snv_east" />
  <trip id="veh_4048" type="car" depart="105.1" from="27184811#3" to="113815194" departLane="best" fromTaz="rolfsbukt_syd" toTaz="e18_vest" />
  <trip id="veh_601" type="car" depart="108.0" from="-27195187#3" to="-27184811#3" departLane="best" fromTaz="snv_syd" toTaz="rolfsbukt_syd" />
  <trip id="veh_1860" type="car" depart="108.1" from="32321958" to="27195187#2" departLane="best" fromTaz="wideroe_nordvest" toTaz="snv_syd" />
  <trip id="veh_1305" type="car" depart="109.2" from="13797031" to="32321957" departLane="best" fromTaz="e18_ost" toTaz="wideroe_nordvest" />
  <trip id="veh_1503" type="car" depart="109.3" from="13797031" to="-27184811#3" departLane="best" fromTaz="e18_ost" toTaz="rolfsbukt_syd" />
  <trip id="veh_3372" type="car" depart="109.5" from="-27194983" to="13797030" departLane="best" fromTaz="snv_east" toTaz="ring3_nord" />
  <trip id="veh_3708" type="car" depart="110.2" from="-52975954" to="362382740" departLane="best" fromTaz="martin_linges_sydost" toTaz="e18_ost" />
  <trip id="veh_1182" type="car" depart="111.1" from="13797031" to="27195187#2" departLane="best" fromTaz="e18_ost" toTaz="snv_syd" />
  <trip id="veh_2805" type="car" depart="111.3" from="32321958" to="27194983" departLane="best" fromTaz="wideroe_nordvest" toTaz="snv_east" />
  <trip id="veh_179" type="car" depart="113.7" from="-27195187#3" to="362382740" departLane="best" fromTaz="snv_syd" toTaz="e18_ost" />
  <trip id="veh_2467" type="car" depart="115.1" from="32321958" to="362382740" departLane="best" fromTaz="wideroe_nordvest" toTaz="e18_ost" />
  <trip id="veh_1688" type="car" depart="115.4" from="131600897" to="-1014336997" departLane="best" fromTaz="ring3_nord" toTaz="odd_nansens_vest" />
  <trip id="veh_2930" type="car" depart="116.0" from="32321958" to="-27184811#3" departLane="best" fromTaz="wideroe_nordvest" toTaz="rolfsbukt_syd" />
  <trip id="veh_2837" type="car" depart="116.0" from="32321958" to="52975954" departLane="best" fromTaz="wideroe_nordvest" toTaz="martin_linges_sydost" />
  <trip id="veh_1861" type="car" depart="118.1" from="32321958" to="27195187#2" departLane="best" fromTaz="wideroe_nordvest" toTaz="snv_syd" />
  <trip id="veh_3438" type="car" depart="118.7" from="-27194983" to="32321957" departLane="best" fromTaz="snv_east" toTaz="wideroe_nordvest" />
  <trip id="veh_572" type="car" depart="120.3" from="-27195187#3" to="52975954" departLane="best" fromTaz="snv_syd" toTaz="martin_linges_sydost" />
  <trip id="veh_1708" type="car" depart="120.8" from="131600897" to="-27184811#3" departLane="best" fromTaz="ring3_nord" toTaz="rolfsbukt_syd" />
  <trip id="veh_3588" type="car" depart="120.9" from="-52975954" to="113815194" departLane="best" fromTaz="martin_linges_sydost" toTaz="e18_vest" />
  <trip id="veh_3146" type="car" depart="121.3" from="-53158894" to="27195187#2" departLane="best" fromTaz="odd_nansens_vest" toTaz="snv_syd" />
  <trip id="veh_2259" type="car" depart="122.6" from="32321958" to="113815194" departLane="best" fromTaz="wideroe_nordvest" toTaz="e18_vest" />
  <trip id="veh_878" type="car" depart="123.8" from="1071762868" to="32321957" departLane="best" fromTaz="e18_vest" toTaz="wideroe_nordvest" />
  <trip id="veh_3709" type="car" depart="125.8" from="-52975954" to="362382740" departLane="best" fromTaz="martin_linges_sydost" toTaz="e18_ost" />
  <trip id="veh_328" type="car" depart="127.2" from="-27195187#3" to="13797030" departLane="best" fromTaz="snv_syd" toTaz="ring3_nord" />
  <trip id="veh_1862" type="car" depart="127.3" from="32321958" to="27195187#2" departLane="best" fromTaz="wideroe_nordvest" toTaz="snv_syd" />
  <trip id="veh_7" type="car" depart="128.1" from="-27195187#3" to="113815194" departLane="best" fromTaz="snv_syd" toTaz="e18_vest" />
  <trip id="veh_3283" type="car" depart="128.4" from="-27194983" to="362382740" departLane="best" fromTaz="snv_east" toTaz="e18_ost" />
  <trip id="veh_738" type="car" depart="129.2" from="1071762868" to="27195187#2" departLane="best" fromTaz="e18_vest" toTaz="snv_syd" />
  <trip id="veh_1737" type="car" depart="131.4" from="466495271#0" to="27195187#2" departLane="best" fromTaz="snv_nordost" toTaz="snv_syd" />
  <trip id="veh_1104" type="car" depart="132.6" from="1071762868" to="-27184811#3" departLane="best" fromTaz="e18_vest" toTaz="rolfsbukt_syd" />
  <trip id="veh_2931" type="car" depart="132.7" from="32321958" to="-27184811#3" departLane="best" fromTaz="wideroe_nordvest" toTaz="rolfsbukt_syd" />
  <trip id="veh_3858" type="car" depart="132.8" from="-52975954" to="313965530#1" departLane="best" fromTaz="martin_linges_sydost" toTaz="snv_nordost" />
  <trip id="veh_1475" type="car" depart="133.3" from="13797031" to="52975954" departLane="best" fromTaz="e18_ost" toTaz="martin_linges_sydost" />
  <trip id="veh_438" type="car" depart="133.5" from="-27195187#3" to="32321957" departLane="best" fromTaz="snv_syd" toTaz="wideroe_nordvest" />
  <trip id="veh_3890" type="car" depart="133.5" from="-52975954" to="32321957" departLane="best" fromTaz="martin_linges_sydost" toTaz="wideroe_nordvest" />
  <trip id="veh_3530" type="car" depart="134.6" from="-52975954" to="27195187#2" departLane="best" fromTaz="martin_linges_sydost" toTaz="snv_syd" />
  <trip id="veh_1863" type="car" depart="135.2" from="32321958" to="27195187#2" departLane="best" fromTaz="wideroe_nordvest" toTaz="snv_syd" />
  <trip id="veh_2260" type="car" depart="135.6" from="32321958" to="113815194" departLane="best" fromTaz="wideroe_nordvest" toTaz="e18_vest" />
  <trip id="veh_3181" type="car" depart="136.8" from="-27194983" to="113815194" departLane="best" fromTaz="snv_east" toTaz="e18_vest" />
  <trip id="veh_602" type="car" depart="137.1" from="-27195187#3" to="-27184811#3" departLane="best" fromTaz="snv_syd" toTaz="rolfsbukt_syd" />