<?xml version='1.0' encoding='utf-8'?>
<routes>
  <vType id="car" vClass="passenger" length="4.5" maxSpeed="50.0" accel="2.6" decel="4.5" sigma="0.5" jmTimegapMinor="1.5" jmDriveAfterYellowTime="1.0" lcStrategic="1.0" lcCooperative="1.0" speedFactor="normc(1.0,0.1,0.8,1.2)" />
  <vType id="emergency" vClass="emergency" length="6.5" maxSpeed="38.89" accel="3.0" decel="5.0" sigma="0.0" speedFactor="1.0" jmDriveAfterRedTime="3" jmIgnoreKeepClearTime="3" color="1,0,0" />
  <trip id="veh_1" type="car" depart="0.0" from="-27195187#3" to="113815194" departLane="best" fromTaz="snv_syd" toTaz="e18_vest" />
  <trip id="veh_112" type="car" depart="0.0" from="-27195187#3" to="362382740" departLane="best" fromTaz="snv_syd" toTaz="e18_ost" />
  <trip id="veh_209" type="car" depart="0.0" from="-27195187#3" to="13797030" departLane="best" fromTaz="snv_syd" toTaz="ring3_nord" />
  <trip id="veh_349" type="car" depart="0.0" from="-27195187#3" to="-1014336997" departLane="best" fromTaz="snv_syd" toTaz="odd_nansens_vest" />
  <trip id="veh_363" type="car" depart="0.0" from="-27195187#3" to="27194983" departLane="best" fromTaz="snv_syd" toTaz="snv_east" />
  <trip id="veh_367" type="car" depart="0.0" from="-27195187#3" to="52975954" departLane="best" fromTaz="snv_syd" toTaz="martin_linges_sydost" />
  <trip id="veh_431" type="car" depart="0.0" from="-53141119" to="27195187#2" departLane="best" fromTaz="bbv_west" toTaz="snv_syd" />
  <trip id="veh_441" type="car" depart="0.0" from="-53141119" to="-1014336997" departLane="best" fromTaz="bbv_west" toTaz="odd_nansens_vest" />
  <trip id="veh_442" type="car" depart="0.0" from="-53141119" to="27194983" departLane="best" fromTaz="bbv_west" toTaz="snv_east" />
  <trip id="veh_460" type="car" depart="0.0" from="-53141119" to="-27184811#3" departLane="best" fromTaz="bbv_west" toTaz="rolfsbukt_syd" />
  <trip id="veh_465" type="car" depart="0.0" from="1071762868" to="27195187#2" departLane="best" fromTaz="e18_vest" toTaz="snv_syd" />
  <trip id="veh_566" type="car" depart="0.0" from="1071762868" to="32321957" departLane="best" fromTaz="e18_vest" toTaz="wideroe_nordvest" />
  <trip id="veh_710" type="car" depart="0.0" from="1071762868" to="52975954" departLane="best" fromTaz="e18_vest" toTaz="martin_linges_sydost" />
  <trip id="veh_732" type="car" depart="0.0" from="1071762868" to="-27184811#3" departLane="best" fromTaz="e18_vest" toTaz="rolfsbukt_syd" />
  <trip id="veh_993" type="car" depart="0.0" from="13797031" to="27194983" departLane="best" fromTaz="e18_ost" toTaz="snv_east" />
  <trip id="veh_999" type="car" depart="0.0" from="13797031" to="52975954" departLane="best" fromTaz="e18_ost" toTaz="martin_linges_sydost" />
  <trip id="veh_1067" type="car" depart="0.0" from="131600897" to="27195187#2" departLane="best" fromTaz="ring3_nord" toTaz="snv_syd" />
  <trip id="veh_1104" type="car" depart="0.0" from="131600897" to="53141119" departLane="best" fromTaz="ring3_nord" toTaz="bbv_west" />
  <trip id="veh_1105" type="car" depart="0.0" from="131600897" to="32321957" departLane="best" fromTaz="ring3_nord" toTaz="wideroe_nordvest" />
  <trip id="veh_1153" type="car" depart="0.0" from="131600897" to="-1014336997" departLane="best" fromTaz="ring3_nord" toTaz="odd_nansens_vest" />
  <trip id="veh_1159" type="car" depart="0.0" from="131600897" to="52975954" departLane="best" fromTaz="ring3_nord" toTaz="martin_linges_sydost" />
  <trip id="veh_1188" type="car" depart="0.0" from="466495271#0" to="27195187#2" departLane="best" fromTaz="snv_nordost" toTaz="snv_syd" />
  <trip id="veh_1213" type="car" depart="0.0" from="466495265#0" to="32321957" departLane="best" fromTaz="snv_nordost" toTaz="wideroe_nordvest" />
  <trip id="veh_1247" type="car" depart="0.0" from="466495265#0" to="52975954" departLane="best" fromTaz="snv_nordost" toTaz="martin_linges_sydost" />
  <trip id="veh_1253" type="car" depart="0.0" from="466495265#0" to="-27184811#3" departLane="best" fromTaz="snv_nordost" toTaz="rolfsbukt_syd" />
  <trip id="veh_1267" type="car" depart="0.0" from="32321958" to="27195187#2" departLane="best" fromTaz="wideroe_nordvest" toTaz="snv_syd" />
  <trip id="veh_1763" type="car" depart="0.0" from="32321958" to="13797030" departLane="best" fromTaz="wideroe_nordvest" toTaz="ring3_nord" />
  <trip id="veh_1863" type="car" depart="0.0" from="32321958" to="27194983" departLane="best" fromTaz="wideroe_nordvest" toTaz="snv_east" />
  <trip id="veh_2078" type="car" depart="0.0" from="-53158894" to="27195187#2" departLane="best" fromTaz="odd_nansens_vest" toTaz="snv_syd" />
  <trip id="veh_2079" type="car" depart="0.0" from="-53158894" to="113815194" departLane="best" fromTaz="odd_nansens_vest" toTaz="e18_vest" />
  <trip id="veh_2082" type="car" depart="0.0" from="-53158894" to="362382740" departLane="best" fromTaz="odd_nansens_vest" toTaz="e18_ost" />
  <trip id="veh_2183" type="car" depart="0.0" from="-27194983" to="362382740" departLane="best" fromTaz="snv_east" toTaz="e18_ost" />
  <trip id="veh_2287" type="car" depart="0.0" from="-27194983" to="313965530#1" departLane="best" fromTaz="snv_east" toTaz="snv_nordost" />
  <trip id="veh_2370" type="car" depart="0.0" from="-27194983" to="52975954" departLane="best" fromTaz="snv_east" toTaz="martin_linges_sydost" />
  <trip id="veh_2381" type="car" depart="0.0" from="-52975954" to="27195187#2" departLane="best" fromTaz="martin_linges_sydost" toTaz="snv_syd" />
  <trip id="veh_2425" type="car" depart="0.0" from="-52975954" to="53141119" departLane="best" fromTaz="martin_linges_sydost" toTaz="bbv_west" />
  <trip id="veh_2645" type="car" depart="0.0" from="-52975954" to="313965530#1" departLane="best" fromTaz="martin_linges_sydost" toTaz="snv_nordost" />
  <trip id="veh_2669" type="car" depart="0.0" from="-52975954" to="32321957" departLane="best" fromTaz="martin_linges_sydost" toTaz="wideroe_nordvest" />
  <trip id="veh_2813" type="car" depart="0.0" from="27184811#3" to="362382740" departLane="best" fromTaz="rolfsbukt_syd" toTaz="e18_ost" />
  <trip id="veh_2839" type="car" depart="0.0" from="27184811#3" to="313965530#1" departLane="best" fromTaz="rolfsbukt_syd" toTaz="snv_nordost" />
  <trip id="veh_2857" type="car" depart="0.0" from="27184811#3" to="-1014336997" departLane="best" fromTaz="rolfsbukt_syd" toTaz="odd_nansens_vest" />
  <trip id="veh_2860" type="car" depart="0.0" from="27184811#3" to="52975954" departLane="best" fromTaz="rolfsbukt_syd" toTaz="martin_linges_sydost" />
  <trip id="veh_279" type="car" depart="0.8" from="-27195187#3" to="32321957" departLane="best" fromTaz="snv_syd" toTaz="wideroe_nordvest" />
  <trip id="veh_2308" type="car" depart="1.6" from="-27194983" to="32321957" departLane="best" fromTaz="snv_east" toTaz="wideroe_nordvest" />
  <trip id="veh_1521" type="car" depart="1.6" from="32321958" to="113815194" departLane="best" fromTaz="wideroe_nordvest" toTaz="e18_vest" />
  <trip id="veh_703" type="car" depart="1.8" from="1071762868" to="27194983" departLane="best" fromTaz="e18_vest" toTaz="snv_east" />
  <trip id="veh_2426" type="car" depart="2.1" from="-52975954" to="113815194" departLane="best" fromTaz="martin_linges_sydost" toTaz="e18_vest" />
  <trip id="veh_2373" type="car" depart="2.3" from="-27194983" to="-27184811#3" departLane="best" fromTaz="snv_east" toTaz="rolfsbukt_syd" />
  <trip id="veh_2746" type="car" depart="3.2" from="-52975954" to="-27184811#3" departLane="best" fromTaz="martin_linges_sydost" toTaz="rolfsbukt_syd" />
  <trip id="veh_787" type="car" depart="3.5" from="13797031" to="27195187#2" departLane="best" fromTaz="e18_ost" toTaz="snv_syd" />
  <trip id="veh_2101" type="car" depart="3.8" from="-27194983" to="113815194" departLane="best" fromTaz="snv_east" toTaz="e18_vest" />
  <trip id="veh_1650" type="car" depart="4.3" from="32321958" to="362382740" departLane="best" fromTaz="wideroe_nordvest" toTaz="e18_ost" />
  <trip id="veh_564" type="car" depart="4.6" from="1071762868" to="53141119" departLane="best" fromTaz="e18_vest" toTaz="bbv_west" />
  <trip id="veh_2256" type="car" depart="5.3" from="-27194983" to="13797030" departLane="best" fromTaz="snv_east" toTaz="ring3_nord" />
  <trip id="veh_2608" type="car" depart="6.3" from="-52975954" to="13797030" departLane="best" fromTaz="martin_linges_sydost" toTaz="ring3_nord" />
  <trip id="veh_1938" type="car" depart="7.0" from="32321958" to="-27184811#3" departLane="best" fromTaz="wideroe_nordvest" toTaz="rolfsbukt_syd" />
  <trip id="veh_1018" type="car" depart="7.4" from="13797031" to="-27184811#3" departLane="best" fromTaz="e18_ost" toTaz="rolfsbukt_syd" />
  <trip id="veh_1812" type="car" depart="7.7" from="32321958" to="313965530#1" departLane="best" fromTaz="wideroe_nordvest" toTaz="snv_nordost" />
  <trip id="veh_874" type="car" depart="8.7" from="13797031" to="32321957" departLane="best" fromTaz="e18_ost" toTaz="wideroe_nordvest" />
  <trip id="veh_2087" type="car" depart="10.2" from="-27194983" to="27195187#2" departLane="best" fromTaz="snv_east" toTaz="snv_syd" />
  <trip id="veh_385" type="car" depart="11.9" from="-27195187#3" to="-27184811#3" departLane="best" fromTaz="snv_syd" toTaz="rolfsbukt_syd" />
  <trip id="veh_2523" type="car" depart="12.2" from="-52975954" to="362382740" departLane="best" fromTaz="martin_linges_sydost" toTaz="e18_ost" />
  <trip id="veh_1268" type="car" depart="12.5" from="32321958" to="27195187#2" departLane="best" fromTaz="wideroe_nordvest" toTaz="snv_syd" />
  <trip id="veh_1844" type="car" depart="12.6" from="32321958" to="-1014336997" departLane="best" fromTaz="wideroe_nordvest" toTaz="odd_nansens_vest" />
  <trip id="veh_2793" type="car" depart="14.5" from="27184811#3" to="113815194" departLane="best" fromTaz="rolfsbukt_syd" toTaz="e18_vest" />
  <trip id="veh_251" type="car" depart="14.9" from="-27195187#3" to="313965530#1" departLane="best" fromTaz="snv_syd" toTaz="snv_nordost" />
  <trip id="veh_1882" type="car" depart="16.5" from="32321958" to="52975954" departLane="best" fromTaz="wideroe_nordvest" toTaz="martin_linges_sydost" />
  <trip id="veh_2360" type="car" depart="19.2" from="-27194983" to="-1014336997" departLane="best" fromTaz="snv_east" toTaz="odd_nansens_vest" />
  <trip id="veh_1522" type="car" depart="19.6" from="32321958" to="113815194" departLane="best" fromTaz="wideroe_nordvest" toTaz="e18_vest" />
  <trip id="veh_1939" type="car" depart="20.8" from="32321958" to="-27184811#3" departLane="best" fromTaz="wideroe_nordvest" toTaz="rolfsbukt_syd" />
  <trip id="veh_466" type="car" depart="25.9" from="1071762868" to="27195187#2" departLane="best" fromTaz="e18_vest" toTaz="snv_syd" />
  <trip id="veh_1167" type="car" depart="30.0" from="131600897" to="-27184811#3" departLane="best" fromTaz="ring3_nord" toTaz="rolfsbukt_syd" />
  <trip id="veh_788" type="car" depart="30.0" from="13797031" to="27195187#2" departLane="best" fromTaz="e18_ost" toTaz="snv_syd" />
  <trip id="veh_1269" type="car" depart="30.4" from="32321958" to="27195187#2" departLane="best" fromTaz="wideroe_nordvest" toTaz="snv_syd" />
  <trip id="veh_2524" type="car" depart="31.3" from="-52975954" to="362382740" departLane="best" fromTaz="martin_linges_sydost" toTaz="e18_ost" />
  <trip id="veh_2427" type="car" depart="31.5" from="-52975954" to="113815194" departLane="best" fromTaz="martin_linges_sydost" toTaz="e18_vest" />
  <trip id="veh_567" type="car" depart="32.2" from="1071762868" to="32321957" departLane="best" fromTaz="e18_vest" toTaz="wideroe_nordvest" />
  <trip id="veh_113" type="car" depart="32.8" from="-27195187#3" to="362382740" departLane="best" fromTaz="snv_syd" toTaz="e18_ost" />
  <trip id="veh_875" type="car" depart="33.5" from="13797031" to="32321957" departLane="best" fromTaz="e18_ost" toTaz="wideroe_nordvest" />
  <trip id="veh_1651" type="car" depart="33.9" from="32321958" to="362382740" departLane="best" fromTaz="wideroe_nordvest" toTaz="e18_ost" />
  <trip id="veh_1517" type="car" depart="34.1" from="32321958" to="53141119" departLane="best" fromTaz="wideroe_nordvest" toTaz="bbv_west" />
  <trip id="veh_2" type="car" depart="35.9" from="-27195187#3" to="113815194" departLane="best" fromTaz="snv_syd" toTaz="e18_vest" />
  <trip id="veh_2102" type="car" depart="41.4" from="-27194983" to="113815194" departLane="best" fromTaz="snv_east" toTaz="e18_vest" />
  <trip id="veh_1270" type="car" depart="42.9" from="32321958" to="27195187#2" departLane="best" fromTaz="wideroe_nordvest" toTaz="snv_syd" />
  <trip id="veh_2784" type="car" depart="44.8" from="27184811#3" to="27195187#2" departLane="best" fromTaz="rolfsbukt_syd" toTaz="snv_syd" />
  <trip id="veh_1940" type="car" depart="46.2" from="32321958" to="-27184811#3" departLane="best" fromTaz="wideroe_nordvest" toTaz="rolfsbukt_syd" />
  <trip id="veh_2184" type="car" depart="51.0" from="-27194983" to="362382740" departLane="best" fromTaz="snv_east" toTaz="e18_ost" />
  <trip id="veh_2743" type="car" depart="51.4" from="-52975954" to="27194983" departLane="best" fromTaz="martin_linges_sydost" toTaz="snv_east" />
  <trip id="veh_3" type="car" depart="55.8" from="-27195187#3" to="113815194" departLane="best" fromTaz="snv_syd" toTaz="e18_vest" />
  <trip id="veh_568" type="car" depart="55.8" from="1071762868" to="32321957" departLane="best" fromTaz="e18_vest" toTaz="wideroe_nordvest" />
  <trip id="veh_1271" type="car" depart="57.5" from="32321958" to="27195187#2" departLane="best" fromTaz="wideroe_nordvest" toTaz="snv_syd" />
  <trip id="veh_876" type="car" depart="58.3" from="13797031" to="32321957" departLane="best" fromTaz="e18_ost" toTaz="wideroe_nordvest" />
  <trip id="veh_280" type="car" depart="58.3" from="-27195187#3" to="32321957" departLane="best" fromTaz="snv_syd" toTaz="wideroe_nordvest" />
  <trip id="veh_1764" type="car" depart="58.8" from="32321958" to="13797030" departLane="best" fromTaz="wideroe_nordvest" toTaz="ring3_nord" />
  <trip id="veh_1883" type="car" depart="59.9" from="32321958" to="52975954" departLane="best" fromTaz="wideroe_nordvest" toTaz="martin_linges_sydost" />
  <trip id="veh_1106" type="car" depart="60.0" from="131600897" to="32321957" departLane="best" fromTaz="ring3_nord" toTaz="wideroe_nordvest" />
  <trip id="veh_2844" type="car" depart="60.5" from="27184811#3" to="32321957" departLane="best" fromTaz="rolfsbukt_syd" toTaz="wideroe_nordvest" />
  <trip id="veh_1523" type="car" depart="61.8" from="32321958" to="113815194" departLane="best" fromTaz="wideroe_nordvest" toTaz="e18_vest" />
  <trip id="veh_114" type="car" depart="63.6" from="-27195187#3" to="362382740" departLane="best" fromTaz="snv_syd" toTaz="e18_ost" />
  <trip id="veh_1652" type="car" depart="64.2" from="32321958" to="362382740" departLane="best" fromTaz="wideroe_nordvest" toTaz="e18_ost" />
  <trip id="veh_386" type="car" depart="67.6" from="-27195187#3" to="-27184811#3" departLane="best" fromTaz="snv_syd" toTaz="rolfsbukt_syd" />
  <trip id="veh_2309" type="car" depart="70.1" from="-27194983" to="32321957" departLane="best" fromTaz="snv_east" toTaz="wideroe_nordvest" />
  <trip id="veh_2670" type="car" depart="70.2" from="-52975954" to="32321957" departLane="best" fromTaz="martin_linges_sydost" toTaz="wideroe_nordvest" />
  <trip id="veh_695" type="car" depart="71.1" from="1071762868" to="-1014336997" departLane="best" fromTaz="e18_vest" toTaz="odd_nansens_vest" />
  <trip id="veh_2831" type="car" depart="72.2" from="27184811#3" to="13797030" departLane="best" fromTaz="rolfsbukt_syd" toTaz="ring3_nord" />
  <trip id="veh_1272" type="car" depart="73.3" from="32321958" to="27195187#2" departLane="best" fromTaz="wideroe_nordvest" toTaz="snv_syd" />
  <trip id="veh_467" type="car" depart="73.8" from="1071762868" to="27195187#2" departLane="best" fromTaz="e18_vest" toTaz="snv_syd" />
  <trip id="veh_1019" type="car" depart="75.8" from="13797031" to="-27184811#3" departLane="best" fromTaz="e18_ost" toTaz="rolfsbukt_syd" />
  <trip id="veh_733" type="car" depart="76.1" from="1071762868" to="-27184811#3" departLane="best" fromTaz="e18_vest" toTaz="rolfsbukt_syd" />
  <trip id="veh_210" type="car" depart="76.2" from="-27195187#3" to="13797030" departLane="best" fromTaz="snv_syd" toTaz="ring3_nord" />
  <trip id="veh_569" type="car" depart="77.6" from="1071762868" to="32321957" departLane="best" fromTaz="e18_vest" toTaz="wideroe_nordvest" />
  <trip id="veh_2730" type="car" depart="78.8" from="-52975954" to="-1014336997" departLane="best" fromTaz="martin_linges_sydost" toTaz="odd_nansens_vest" />
  <trip id="veh_2609" type="car" depart="78.8" from="-52975954" to="13797030" departLane="best" fromTaz="martin_linges_sydost" toTaz="ring3_nord" />
  <trip id="veh_2103" type="car" depart="79.7" from="-27194983" to="113815194" departLane="best" fromTaz="snv_east" toTaz="e18_vest" />
  <trip id="veh_2382" type="car" depart="83.7" from="-52975954" to="27195187#2" departLane="best" fromTaz="martin_linges_sydost" toTaz="snv_syd" />
  <trip id="veh_2525" type="car" depart="84.1" from="-52975954" to="362382740" departLane="best" fromTaz="martin_linges_sydost" toTaz="e18_ost" />
  <trip id="veh_2428" type="car" depart="84.4" from="-52975954" to="113815194" departLane="best" fromTaz="martin_linges_sydost" toTaz="e18_vest" />
  <trip id="veh_1941" type="car" depart="84.8" from="32321958" to="-27184811#3" departLane="best" fromTaz="wideroe_nordvest" toTaz="rolfsbukt_syd" />
  <trip id="veh_1068" type="car" depart="85.7" from="131600897" to="27195187#2" departLane="best" fromTaz="ring3_nord" toTaz="snv_syd" />
  <trip id="veh_789" type="car" depart="86.0" from="13797031" to="27195187#2" departLane="best" fromTaz="e18_ost" toTaz="snv_syd" />
  <trip id="veh_1214" type="car" depart="87.5" from="466495265#0" to="32321957" departLane="best" fromTaz="snv_nordost" toTaz="wideroe_nordvest" />
  <trip id="veh_2185" type="car" depart="89.4" from="-27194983" to="362382740" departLane="best" fromTaz="snv_east" toTaz="e18_ost" />
  <trip id="veh_1273" type="car" depart="89.5" from="32321958" to="27195187#2" departLane="best" fromTaz="wideroe_nordvest" toTaz="snv_syd" />
  <trip id="veh_281" type="car" depart="89.7" from="-27195187#3" to="32321957" departLane="best" fromTaz="snv_syd" toTaz="wideroe_nordvest" />
  <trip id="veh_1524" type="car" depart="90.7" from="32321958" to="113815194" departLane="best" fromTaz="wideroe_nordvest" toTaz="e18_vest" />
  <trip id="veh_4" type="car" depart="92.1" from="-27195187#3" to="113815194" departLane="best" fromTaz="snv_syd" toTaz="e18_vest" />
  <trip id="veh_877" type="car" depart="95.7" from="13797031" to="32321957" departLane="best" fromTaz="e18_ost" toTaz="wideroe_nordvest" />
  <trip id="veh_2747" type="car" depart="95.8" from="-52975954" to="-27184811#3" departLane="best" fromTaz="martin_linges_sydost" toTaz="rolfsbukt_syd" />
  <trip id="veh_1653" type="car" depart="97.8" from="32321958" to="362382740" departLane="best" fromTaz="wideroe_nordvest" toTaz="e18_ost" />
  <trip id="veh_1274" type="car" depart="98.8" from="32321958" to="27195187#2" departLane="best" fromTaz="wideroe_nordvest" toTaz="snv_syd" />
  <trip id="veh_1942" type="car" depart="99.2" from="32321958" to="-27184811#3" departLane="best" fromTaz="wideroe_nordvest" toTaz="rolfsbukt_syd" />
  <trip id="veh_873" type="car" depart="100.1" from="13797031" to="53141119" departLane="best" fromTaz="e18_ost" toTaz="bbv_west" />
  <trip id="veh_1156" type="car" depart="103.2" from="131600897" to="27194983" departLane="best" fromTaz="ring3_nord" toTaz="snv_east" />
  <trip id="veh_1525" type="car" depart="103.9" from="32321958" to="113815194" departLane="best" fromTaz="wideroe_nordvest" toTaz="e18_vest" />
  <trip id="veh_115" type="car" depart="107.5" from="-27195187#3" to="362382740" departLane="best" fromTaz="snv_syd" toTaz="e18_ost" />
  <trip id="veh_2429" type="car" depart="111.8" from="-52975954" to="113815194" departLane="best" fromTaz="martin_linges_sydost" toTaz="e18_vest" />
  <trip id="veh_570" type="car" depart="112.0" from="1071762868" to="32321957" departLane="best" fromTaz="e18_vest" toTaz="wideroe_nordvest" />
  <trip id="veh_2671" type="car" depart="113.7" from="-52975954" to="32321957" departLane="best" fromTaz="martin_linges_sydost" toTaz="wideroe_nordvest" />
  <trip id="veh_468" type="car" depart="115.1" from="1071762868" to="27195187#2" departLane="best" fromTaz="e18_vest" toTaz="snv_syd" />
  <trip id="veh_987" type="car" depart="115.8" from="13797031" to="-1014336997" departLane="best" fromTaz="e18_ost" toTaz="odd_nansens_vest" />
  <trip id="veh_1275" type="car" depart="118.6" from="32321958" to="27195187#2" departLane="best" fromTaz="wideroe_nordvest" toTaz="snv_syd" />
  <trip id="veh_2310" type="car" depart="121.5" from="-27194983" to="32321957" departLane="best" fromTaz="snv_east" toTaz="wideroe_nordvest" />
  <trip id="veh_1813" type="car" depart="127.0" from="32321958" to="313965530#1" departLane="best" fromTaz="wideroe_nordvest" toTaz="snv_nordost" />
  <trip id="veh_1654" type="car" depart="127.3" from="32321958" to="362382740" departLane="best" fromTaz="wideroe_nordvest" toTaz="e18_ost" />
  <trip id="veh_1765" type="car" depart="127.6" from="32321958" to="13797030" departLane="best" fromTaz="wideroe_nordvest" toTaz="ring3_nord" />
  <trip id="veh_1943" type="car" depart="129.5" from="32321958" to="-27184811#3" departLane="best" fromTaz="wideroe_nordvest" toTaz="rolfsbukt_syd" />
  <trip id="veh_2526" type="car" depart="130.6" from="-52975954" to="362382740" departLane="best" fromTaz="martin_linges_sydost" toTaz="e18_ost" />
  <trip id="veh_790" type="car" depart="130.7" from="13797031" to="27195187#2" departLane="best" fromTaz="e18_ost" toTaz="snv_syd" />
  <trip id="veh_2104" type="car" depart="130.8" from="-27194983" to="113815194" departLane="best" fromTaz="snv_east" toTaz="e18_vest" />
  <trip id="veh_878" type="car" depart="131.3" from="13797031" to="32321957" departLane="best" fromTaz="e18_ost" toTaz="wideroe_nordvest" />
  <trip id="veh_1276" type="car" depart="131.9" from="32321958" to="27195187#2" departLane="best" fromTaz="wideroe_nordvest" toTaz="snv_syd" />
  <trip id="veh_1526" type="car" depart="133.5" from="32321958" to="113815194" departLane="best" fromTaz="wideroe_nordvest" toTaz="e18_vest" />
  <trip id="veh_5" type="car" depart="133.9" from="-27195187#3" to="113815194" departLane="best" fromTaz="snv_syd" toTaz="e18_vest" />
  <trip id="veh_1189" type="car" depart="136.5" from="466495265#0" to="27195187#2" departLane="best" fromTaz="snv_nordost" toTaz="snv_syd" />
  <trip id="veh_571" type="car" depart="136.7" from="1071762868" to="32321957" departLane="best" fromTaz="e18_vest" toTaz="wideroe_nordvest" />
  <trip id="veh_1884" type="car" depart="137.1" from="32321958" to="52975954" departLane="best" fromTaz="wideroe_nordvest" toTaz="martin_linges_sydost" />
  <trip id="veh_469" type="car" depart="137.2" from="1071762868" to="27195187#2" departLane="best" fromTaz="e18_vest" toTaz="snv_syd" />
  <trip id="veh_2186" type="car" depart="138.6" from="-27194983" to="362382740" departLane="best" fromTaz="snv_east" toTaz="e18_ost" />
  <trip id="veh_734" type="car" depart="139.3" from="1071762868" to="-27184811#3" departLane="best" fromTaz="e18_vest" toTaz="rolfsbukt_syd" />
  <trip id="veh_2383" type="car" depart="141.1" from="-52975954" to="27195187#2" departLane="best" fromTaz="martin_linges_sydost" toTaz="snv_syd" />
  <trip id="veh_2257" type="car" depart="143.5" from="-27194983" to="13797030" departLane="best" fromTaz="snv_east" toTaz="ring3_nord" />
  <trip id="veh_1277" type="car" depart="144.4" from="32321958" to="27195187#2" departLane="best" fromTaz="wideroe_nordvest" toTaz="snv_syd" />
  <trip id="veh_116" type="car" depart="145.1" from="-27195187#3" to="362382740" departLane="best" fromTaz="snv_syd" toTaz="e18_ost" />
  <trip id="veh_1845" type="car" depart="145.6" from="32321958" to="-1014336997" departLane="best" fromTaz="wideroe_nordvest" toTaz="odd_nansens_vest" />
  <trip id="veh_1864" type="car" depart="146.0" from="32321958" to="27194983" departLane="best" fromTaz="wideroe_nordvest" toTaz="snv_east" />
  <trip id="veh_711" type="car" depart="151.2" from="1071762868" to="52975954" departLane="best" fromTaz="e18_vest" toTaz="martin_linges_sydost" />
  <trip id="veh_252" type="car" depart="152.8" from="-27195187#3" to="313965530#1" departLane="best" fromTaz="snv_syd" toTaz="snv_nordost" />
  <trip id="veh_2430" type="car" depart="154.6" from="-52975954" to="113815194" departLane="best" fromTaz="martin_linges_sydost" toTaz="e18_vest" />
  <trip id="veh_879" type="car" depart="155.0" from="13797031" to="32321957" departLane="best" fromTaz="e18_ost" toTaz="wideroe_nordvest" />
  <trip id="veh_211" type="car" depart="156.8" from="-27195187#3" to="13797030" departLane="best" fromTaz="snv_syd" toTaz="ring3_nord" />
  <trip id="veh_1278" type="car" depart="157.2" from="32321958" to="27195187#2" departLane="best" fromTaz="wideroe_nordvest" toTaz="snv_syd" />
  <trip id="veh_282" type="car" depart="158.1" from="-27195187#3" to="32321957" departLane="best" fromTaz="snv_syd" toTaz="wideroe_nordvest" />
  <trip id="veh_2527" type="car" depart="161.1" from="-52975954" to="362382740" departLane="best" fromTaz="martin_linges_sydost" toTaz="e18_ost" />
  <trip id="veh_6" type="car" depart="161.2" from="-27195187#3" to="113815194" departLane="best" fromTaz="snv_syd" toTaz="e18_vest" />
  <trip id="veh_387" type="car" depart="161.5" from="-27195187#3" to="-27184811#3" departLane="best" fromTaz="snv_syd" toTaz="rolfsbukt_syd" />
  <trip id="veh_1944" type="car" depart="161.7" from="32321958" to="-27184811#3" departLane="best" fromTaz="wideroe_nordvest" toTaz="rolfsbukt_syd" />
  <trip id="veh_1527" type="car" depart="163.0" from="32321958" to="113815194" departLane="best" fromTaz="wideroe_nordvest" toTaz="e18_vest" />
  <trip id="veh_1655" type="car" depart="163.3" from="32321958" to="362382740" departLane="best" fromTaz="wideroe_nordvest" toTaz="e18_ost" />
  <trip id="veh_572" type="car" depart="165.6" from="1071762868" to="32321957" departLane="best" fromTaz="e18_vest" toTaz="wideroe_nordvest" />
  <trip id="veh_1069" type="car" depart="165.8" from="131600897" to="27195187#2" departLane="best" fromTaz="ring3_nord" toTaz="snv_syd" />
  <trip id="veh_1020" type="car" depart="167.5" from="13797031" to="-27184811#3" departLane="best" fromTaz="e18_ost" toTaz="rolfsbukt_syd" />
  <trip id="veh_1279" type="car" depart="169.6" from="32321958" to="27195187#2" departLane="best" fromTaz="wideroe_nordvest" toTaz="snv_syd" />
  <trip id="veh_1107" type="car" depart="170.2" from="131600897" to="32321957" departLane="best" fromTaz="ring3_nord" toTaz="wideroe_nordvest" />
  <trip id="veh_791" type="car" depart="173.8" from="13797031" to="27195187#2" departLane="best" fromTaz="e18_ost" toTaz="snv_syd" />
  <trip id="veh_1945" type="car" depart="179.2" from="32321958" to="-27184811#3" departLane="best" fromTaz="wideroe_nordvest" toTaz="rolfsbukt_syd" />
  <trip id="veh_2105" type="car" depart="179.5" from="-27194983" to="113815194" departLane="best" fromTaz="snv_east" toTaz="e18_vest" />
  <trip id="veh_1885" type="car" depart="181.4" from="32321958" to="52975954" departLane="best" fromTaz="wideroe_nordvest" toTaz="martin_linges_sydost" />
  <trip id="veh_1000" type="car" depart="181.7" from="13797031" to="52975954" departLane="best" fromTaz="e18_ost" toTaz="martin_linges_sydost" />
  <trip id="veh_2859" type="car" depart="182.1" from="27184811#3" to="27194983" departLane="best" fromTaz="rolfsbukt_syd" toTaz="snv_east" />
  <trip id="veh_2814" type="car" depart="182.5" from="27184811#3" to="362382740" departLane="best" fromTaz="rolfsbukt_syd" toTaz="e18_ost" />
  <trip id="veh_735" type="car" depart="182.8" from="1071762868" to="-27184811#3" departLane="best" fromTaz="e18_vest" toTaz="rolfsbukt_syd" />
  <trip id="veh_2646" type="car" depart="183.8" from="-52975954" to="313965530#1" departLane="best" fromTaz="martin_linges_sydost" toTaz="snv_nordost" />
  <trip id="veh_1656" type="car" depart="183.9" from="32321958" to="362382740" departLane="best" fromTaz="wideroe_nordvest" toTaz="e18_ost" />
  <trip id="veh_470" type="car" depart="184.8" from="1071762868" to="27195187#2" departLane="best" fromTaz="e18_vest" toTaz="snv_syd" />
  <trip id="veh_1280" type="car" depart="186.0" from="32321958" to="27195187#2" departLane="best" fromTaz="wideroe_nordvest" toTaz="snv_syd" />
  <trip id="veh_2187" type="car" depart="187.3" from="-27194983" to="362382740" departLane="best" fromTaz="snv_east" toTaz="e18_ost" />
  <trip id="veh_1168" type="car" depart="187.3" from="131600897" to="-27184811#3" departLane="best" fromTaz="ring3_nord" toTaz="rolfsbukt_syd" />
  <trip id="veh_2431" type="car" depart="188.4" from="-52975954" to="113815194" departLane="best" fromTaz="martin_linges_sydost" toTaz="e18_vest" />
  <trip id="veh_2672" type="car" depart="190.3" from="-52975954" to="32321957" departLane="best" fromTaz="martin_linges_sydost" toTaz="wideroe_nordvest" />
  <trip id="veh_880" type="car" depart="191.4" from="13797031" to="32321957" departLane="best" fromTaz="e18_ost" toTaz="wideroe_nordvest" />
  <trip id="veh_368" type="car" depart="191.8" from="-27195187#3" to="52975954" departLane="best" fromTaz="snv_syd" toTaz="martin_linges_sydost" />
  <trip id="veh_117" type="car" depart="195.3" from="-27195187#3" to="362382740" departLane="best" fromTaz="snv_syd" toTaz="e18_ost" />
  <trip id="veh_573" type="car" depart="195.5" from="1071762868" to="32321957" departLane="best" fromTaz="e18_vest" toTaz="wideroe_nordvest" />
  <trip id="veh_1814" type="car" depart="196.2" from="32321958" to="313965530#1" departLane="best" fromTaz="wideroe_nordvest" toTaz="snv_nordost" />
  <trip id="veh_1528" type="car" depart="196.5" from="32321958" to="113815194" departLane="best" fromTaz="wideroe_nordvest" toTaz="e18_vest" />
  <trip id="veh_2086" type="car" depart="198.4" from="-53158894" to="-27184811#3" departLane="best" fromTaz="odd_nansens_vest" toTaz="rolfsbukt_syd" />