<?xml version='1.0' encoding='utf-8'?>
<routes>
  <vType id="car" vClass="passenger" length="4.5" maxSpeed="50.0" accel="2.6" decel="4.5" sigma="0.5" jmTimegapMinor="1.5" />
  <vType id="emergency" vClass="emergency" length="6.5" maxSpeed="38.89" accel="3.0" decel="5.0" sigma="0.0" speedFactor="1.0" jmDriveAfterRedTime="3" jmIgnoreKeepClearTime="3" color="1,0,0" />
  <trip id="veh_1" type="car" depart="0.0" from="115505254" to="113815194" departLane="best" fromTaz="snv_syd" toTaz="e18_vest" />
  <trip id="veh_140" type="car" depart="0.0" from="115505254" to="362382740" departLane="best" fromTaz="snv_syd" toTaz="e18_ost" />
  <trip id="veh_261" type="car" depart="0.0" from="115505254" to="13797030" departLane="best" fromTaz="snv_syd" toTaz="ring3_nord" />
  <trip id="veh_313" type="car" depart="0.0" from="115505254" to="313965530#1" departLane="best" fromTaz="snv_syd" toTaz="snv_nordost" />
  <trip id="veh_348" type="car" depart="0.0" from="115505254" to="32321957" departLane="best" fromTaz="snv_syd" toTaz="wideroe_nordvest" />
  <trip id="veh_481" type="car" depart="0.0" from="115505254" to="-27184811#3" departLane="best" fromTaz="snv_syd" toTaz="rolfsbukt_syd" />
  <trip id="veh_538" type="car" depart="0.0" from="-53141119" to="115505232" departLane="best" fromTaz="bbv_west" toTaz="snv_syd" />
  <trip id="veh_549" type="car" depart="0.0" from="-53141119" to="113815194" departLane="best" fromTaz="bbv_west" toTaz="e18_vest" />
  <trip id="veh_550" type="car" depart="0.0" from="-53141119" to="-1014336997" departLane="best" fromTaz="bbv_west" toTaz="odd_nansens_vest" />
  <trip id="veh_551" type="car" depart="0.0" from="-53141119" to="27194983" departLane="best" fromTaz="bbv_west" toTaz="snv_east" />
  <trip id="veh_571" type="car" depart="0.0" from="-53141119" to="52975954" departLane="best" fromTaz="bbv_west" toTaz="martin_linges_sydost" />
  <trip id="veh_579" type="car" depart="0.0" from="1071762868" to="115505232" departLane="best" fromTaz="e18_vest" toTaz="snv_syd" />
  <trip id="veh_705" type="car" depart="0.0" from="1071762868" to="32321957" departLane="best" fromTaz="e18_vest" toTaz="wideroe_nordvest" />
  <trip id="veh_876" type="car" depart="0.0" from="1071762868" to="27194983" departLane="best" fromTaz="e18_vest" toTaz="snv_east" />
  <trip id="veh_1233" type="car" depart="0.0" from="13797031" to="-1014336997" departLane="best" fromTaz="e18_ost" toTaz="odd_nansens_vest" />
  <trip id="veh_1241" type="car" depart="0.0" from="13797031" to="27194983" departLane="best" fromTaz="e18_ost" toTaz="snv_east" />
  <trip id="veh_1249" type="car" depart="0.0" from="13797031" to="52975954" departLane="best" fromTaz="e18_ost" toTaz="martin_linges_sydost" />
  <trip id="veh_1380" type="car" depart="0.0" from="131600897" to="53141119" departLane="best" fromTaz="ring3_nord" toTaz="bbv_west" />
  <trip id="veh_1381" type="car" depart="0.0" from="131600897" to="32321957" departLane="best" fromTaz="ring3_nord" toTaz="wideroe_nordvest" />
  <trip id="veh_1441" type="car" depart="0.0" from="131600897" to="-1014336997" departLane="best" fromTaz="ring3_nord" toTaz="odd_nansens_vest" />
  <trip id="veh_1449" type="car" depart="0.0" from="131600897" to="52975954" departLane="best" fromTaz="ring3_nord" toTaz="martin_linges_sydost" />
  <trip id="veh_1485" type="car" depart="0.0" from="466495271#0" to="115505232" departLane="best" fromTaz="snv_nordost" toTaz="snv_syd" />
  <trip id="veh_1560" type="car" depart="0.0" from="466495271#0" to="52975954" departLane="best" fromTaz="snv_nordost" toTaz="martin_linges_sydost" />
  <trip id="veh_1567" type="car" depart="0.0" from="466495271#0" to="-27184811#3" departLane="best" fromTaz="snv_nordost" toTaz="rolfsbukt_syd" />
  <trip id="veh_1902" type="car" depart="0.0" from="32321958" to="113815194" departLane="best" fromTaz="wideroe_nordvest" toTaz="e18_vest" />
  <trip id="veh_2266" type="car" depart="0.0" from="32321958" to="313965530#1" departLane="best" fromTaz="wideroe_nordvest" toTaz="snv_nordost" />
  <trip id="veh_2330" type="car" depart="0.0" from="32321958" to="27194983" departLane="best" fromTaz="wideroe_nordvest" toTaz="snv_east" />
  <trip id="veh_2424" type="car" depart="0.0" from="32321958" to="-27184811#3" departLane="best" fromTaz="wideroe_nordvest" toTaz="rolfsbukt_syd" />
  <trip id="veh_2600" type="car" depart="0.0" from="-53158894" to="113815194" departLane="best" fromTaz="odd_nansens_vest" toTaz="e18_vest" />
  <trip id="veh_2609" type="car" depart="0.0" from="-53158894" to="-27184811#3" departLane="best" fromTaz="odd_nansens_vest" toTaz="rolfsbukt_syd" />
  <trip id="veh_2627" type="car" depart="0.0" from="-27194983" to="113815194" departLane="best" fromTaz="snv_east" toTaz="e18_vest" />
  <trip id="veh_2821" type="car" depart="0.0" from="-27194983" to="13797030" departLane="best" fromTaz="snv_east" toTaz="ring3_nord" />
  <trip id="veh_2860" type="car" depart="0.0" from="-27194983" to="313965530#1" departLane="best" fromTaz="snv_east" toTaz="snv_nordost" />
  <trip id="veh_2951" type="car" depart="0.0" from="-27194983" to="-1014336997" departLane="best" fromTaz="snv_east" toTaz="odd_nansens_vest" />
  <trip id="veh_2968" type="car" depart="0.0" from="-27194983" to="-27184811#3" departLane="best" fromTaz="snv_east" toTaz="rolfsbukt_syd" />
  <trip id="veh_2978" type="car" depart="0.0" from="-52975954" to="115505232" departLane="best" fromTaz="martin_linges_sydost" toTaz="snv_syd" />
  <trip id="veh_3033" type="car" depart="0.0" from="-52975954" to="53141119" departLane="best" fromTaz="martin_linges_sydost" toTaz="bbv_west" />
  <trip id="veh_3307" type="car" depart="0.0" from="-52975954" to="313965530#1" departLane="best" fromTaz="martin_linges_sydost" toTaz="snv_nordost" />
  <trip id="veh_3548" type="car" depart="0.0" from="27184811#3" to="313965530#1" departLane="best" fromTaz="rolfsbukt_syd" toTaz="snv_nordost" />
  <trip id="veh_3261" type="car" depart="0.8" from="-52975954" to="13797030" departLane="best" fromTaz="martin_linges_sydost" toTaz="ring3_nord" />
  <trip id="veh_3337" type="car" depart="1.0" from="-52975954" to="32321957" departLane="best" fromTaz="martin_linges_sydost" toTaz="wideroe_nordvest" />
  <trip id="veh_3034" type="car" depart="1.1" from="-52975954" to="113815194" departLane="best" fromTaz="martin_linges_sydost" toTaz="e18_vest" />
  <trip id="veh_2064" type="car" depart="1.8" from="32321958" to="362382740" departLane="best" fromTaz="wideroe_nordvest" toTaz="e18_ost" />
  <trip id="veh_573" type="car" depart="2.6" from="-53141119" to="-27184811#3" departLane="best" fromTaz="bbv_west" toTaz="rolfsbukt_syd" />
  <trip id="veh_1584" type="car" depart="3.2" from="32321958" to="115505232" departLane="best" fromTaz="wideroe_nordvest" toTaz="snv_syd" />
  <trip id="veh_1459" type="car" depart="3.6" from="131600897" to="-27184811#3" departLane="best" fromTaz="ring3_nord" toTaz="rolfsbukt_syd" />
  <trip id="veh_2886" type="car" depart="4.4" from="-27194983" to="32321957" departLane="best" fromTaz="snv_east" toTaz="wideroe_nordvest" />
  <trip id="veh_703" type="car" depart="6.2" from="1071762868" to="53141119" departLane="best" fromTaz="e18_vest" toTaz="bbv_west" />
  <trip id="veh_982" type="car" depart="7.0" from="13797031" to="115505232" departLane="best" fromTaz="e18_ost" toTaz="snv_syd" />
  <trip id="veh_1092" type="car" depart="7.5" from="13797031" to="32321957" departLane="best" fromTaz="e18_ost" toTaz="wideroe_nordvest" />
  <trip id="veh_3155" type="car" depart="7.8" from="-52975954" to="362382740" departLane="best" fromTaz="martin_linges_sydost" toTaz="e18_ost" />
  <trip id="veh_3570" type="car" depart="8.4" from="27184811#3" to="-1014336997" departLane="best" fromTaz="rolfsbukt_syd" toTaz="odd_nansens_vest" />
  <trip id="veh_2205" type="car" depart="10.6" from="32321958" to="13797030" departLane="best" fromTaz="wideroe_nordvest" toTaz="ring3_nord" />
  <trip id="veh_2730" type="car" depart="11.3" from="-27194983" to="362382740" departLane="best" fromTaz="snv_east" toTaz="e18_ost" />
  <trip id="veh_435" type="car" depart="11.4" from="115505254" to="-1014336997" departLane="best" fromTaz="snv_syd" toTaz="odd_nansens_vest" />
  <trip id="veh_1585" type="car" depart="11.8" from="32321958" to="115505232" departLane="best" fromTaz="wideroe_nordvest" toTaz="snv_syd" />
  <trip id="veh_1273" type="car" depart="12.7" from="13797031" to="-27184811#3" departLane="best" fromTaz="e18_ost" toTaz="rolfsbukt_syd" />
  <trip id="veh_885" type="car" depart="12.8" from="1071762868" to="52975954" departLane="best" fromTaz="e18_vest" toTaz="martin_linges_sydost" />
  <trip id="veh_2354" type="car" depart="14.0" from="32321958" to="52975954" departLane="best" fromTaz="wideroe_nordvest" toTaz="martin_linges_sydost" />
  <trip id="veh_913" type="car" depart="14.1" from="1071762868" to="-27184811#3" departLane="best" fromTaz="e18_vest" toTaz="rolfsbukt_syd" />
  <trip id="veh_2425" type="car" depart="14.7" from="32321958" to="-27184811#3" departLane="best" fromTaz="wideroe_nordvest" toTaz="rolfsbukt_syd" />
  <trip id="veh_2604" type="car" depart="15.0" from="-53158894" to="362382740" departLane="best" fromTaz="odd_nansens_vest" toTaz="e18_ost" />
  <trip id="veh_3491" type="car" depart="15.1" from="27184811#3" to="113815194" departLane="best" fromTaz="rolfsbukt_syd" toTaz="e18_vest" />
  <trip id="veh_706" type="car" depart="15.9" from="1071762868" to="32321957" departLane="best" fromTaz="e18_vest" toTaz="wideroe_nordvest" />
  <trip id="veh_1516" type="car" depart="17.6" from="466495265#0" to="32321957" departLane="best" fromTaz="snv_nordost" toTaz="wideroe_nordvest" />
  <trip id="veh_2306" type="car" depart="17.8" from="32321958" to="-1014336997" departLane="best" fromTaz="wideroe_nordvest" toTaz="odd_nansens_vest" />
  <trip id="veh_1903" type="car" depart="22.0" from="32321958" to="113815194" departLane="best" fromTaz="wideroe_nordvest" toTaz="e18_vest" />
  <trip id="veh_3433" type="car" depart="22.5" from="-52975954" to="-27184811#3" departLane="best" fromTaz="martin_linges_sydost" toTaz="rolfsbukt_syd" />
  <trip id="veh_2065" type="car" depart="22.8" from="32321958" to="362382740" departLane="best" fromTaz="wideroe_nordvest" toTaz="e18_ost" />
  <trip id="veh_1334" type="car" depart="22.9" from="131600897" to="115505232" departLane="best" fromTaz="ring3_nord" toTaz="snv_syd" />
  <trip id="veh_1586" type="car" depart="23.6" from="32321958" to="115505232" departLane="best" fromTaz="wideroe_nordvest" toTaz="snv_syd" />
  <trip id="veh_3156" type="car" depart="24.8" from="-52975954" to="362382740" departLane="best" fromTaz="martin_linges_sydost" toTaz="e18_ost" />
  <trip id="veh_3554" type="car" depart="27.2" from="27184811#3" to="32321957" departLane="best" fromTaz="rolfsbukt_syd" toTaz="wideroe_nordvest" />
  <trip id="veh_2" type="car" depart="28.6" from="115505254" to="113815194" departLane="best" fromTaz="snv_syd" toTaz="e18_vest" />
  <trip id="veh_141" type="car" depart="29.7" from="115505254" to="362382740" departLane="best" fromTaz="snv_syd" toTaz="e18_ost" />
  <trip id="veh_580" type="car" depart="30.3" from="1071762868" to="115505232" departLane="best" fromTaz="e18_vest" toTaz="snv_syd" />
  <trip id="veh_2731" type="car" depart="30.5" from="-27194983" to="362382740" departLane="best" fromTaz="snv_east" toTaz="e18_ost" />
  <trip id="veh_2628" type="car" depart="31.5" from="-27194983" to="113815194" departLane="best" fromTaz="snv_east" toTaz="e18_vest" />
  <trip id="veh_349" type="car" depart="32.1" from="115505254" to="32321957" departLane="best" fromTaz="snv_syd" toTaz="wideroe_nordvest" />
  <trip id="veh_1090" type="car" depart="32.2" from="13797031" to="53141119" departLane="best" fromTaz="e18_ost" toTaz="bbv_west" />
  <trip id="veh_3516" type="car" depart="32.5" from="27184811#3" to="362382740" departLane="best" fromTaz="rolfsbukt_syd" toTaz="e18_ost" />
  <trip id="veh_3480" type="car" depart="33.0" from="27184811#3" to="115505232" departLane="best" fromTaz="rolfsbukt_syd" toTaz="snv_syd" />
  <trip id="veh_1093" type="car" depart="33.0" from="13797031" to="32321957" departLane="best" fromTaz="e18_ost" toTaz="wideroe_nordvest" />
  <trip id="veh_1587" type="car" depart="33.2" from="32321958" to="115505232" departLane="best" fromTaz="wideroe_nordvest" toTaz="snv_syd" />
  <trip id="veh_3035" type="car" depart="33.7" from="-52975954" to="113815194" departLane="best" fromTaz="martin_linges_sydost" toTaz="e18_vest" />
  <trip id="veh_983" type="car" depart="35.4" from="13797031" to="115505232" departLane="best" fromTaz="e18_ost" toTaz="snv_syd" />
  <trip id="veh_458" type="car" depart="36.1" from="115505254" to="52975954" departLane="best" fromTaz="snv_syd" toTaz="martin_linges_sydost" />
  <trip id="veh_707" type="car" depart="38.2" from="1071762868" to="32321957" departLane="best" fromTaz="e18_vest" toTaz="wideroe_nordvest" />
  <trip id="veh_2887" type="car" depart="41.5" from="-27194983" to="32321957" departLane="best" fromTaz="snv_east" toTaz="wideroe_nordvest" />
  <trip id="veh_2426" type="car" depart="42.3" from="32321958" to="-27184811#3" departLane="best" fromTaz="wideroe_nordvest" toTaz="rolfsbukt_syd" />
  <trip id="veh_3" type="car" depart="44.5" from="115505254" to="113815194" departLane="best" fromTaz="snv_syd" toTaz="e18_vest" />
  <trip id="veh_2206" type="car" depart="44.6" from="32321958" to="13797030" departLane="best" fromTaz="wideroe_nordvest" toTaz="ring3_nord" />
  <trip id="veh_2066" type="car" depart="45.4" from="32321958" to="362382740" departLane="best" fromTaz="wideroe_nordvest" toTaz="e18_ost" />
  <trip id="veh_2979" type="car" depart="46.2" from="-52975954" to="115505232" departLane="best" fromTaz="martin_linges_sydost" toTaz="snv_syd" />
  <trip id="veh_2610" type="car" depart="47.0" from="-27194983" to="115505232" departLane="best" fromTaz="snv_east" toTaz="snv_syd" />
  <trip id="veh_1904" type="car" depart="47.2" from="32321958" to="113815194" departLane="best" fromTaz="wideroe_nordvest" toTaz="e18_vest" />
  <trip id="veh_1094" type="car" depart="48.3" from="13797031" to="32321957" departLane="best" fromTaz="e18_ost" toTaz="wideroe_nordvest" />
  <trip id="veh_3338" type="car" depart="48.9" from="-52975954" to="32321957" departLane="best" fromTaz="martin_linges_sydost" toTaz="wideroe_nordvest" />
  <trip id="veh_1588" type="car" depart="49.4" from="32321958" to="115505232" departLane="best" fromTaz="wideroe_nordvest" toTaz="snv_syd" />
  <trip id="veh_581" type="car" depart="49.7" from="1071762868" to="115505232" departLane="best" fromTaz="e18_vest" toTaz="snv_syd" />
  <trip id="veh_1274" type="car" depart="50.6" from="13797031" to="-27184811#3" departLane="best" fromTaz="e18_ost" toTaz="rolfsbukt_syd" />
  <trip id="veh_262" type="car" depart="52.3" from="115505254" to="13797030" departLane="best" fromTaz="snv_syd" toTaz="ring3_nord" />
  <trip id="veh_3574" type="car" depart="55.7" from="27184811#3" to="52975954" departLane="best" fromTaz="rolfsbukt_syd" toTaz="martin_linges_sydost" />
  <trip id="veh_1589" type="car" depart="56.2" from="32321958" to="115505232" departLane="best" fromTaz="wideroe_nordvest" toTaz="snv_syd" />
  <trip id="veh_2427" type="car" depart="58.6" from="32321958" to="-27184811#3" departLane="best" fromTaz="wideroe_nordvest" toTaz="rolfsbukt_syd" />
  <trip id="veh_2355" type="car" depart="59.2" from="32321958" to="52975954" departLane="best" fromTaz="wideroe_nordvest" toTaz="martin_linges_sydost" />
  <trip id="veh_1382" type="car" depart="60.9" from="131600897" to="32321957" departLane="best" fromTaz="ring3_nord" toTaz="wideroe_nordvest" />
  <trip id="veh_708" type="car" depart="61.8" from="1071762868" to="32321957" departLane="best" fromTaz="e18_vest" toTaz="wideroe_nordvest" />
  <trip id="veh_3413" type="car" depart="61.9" from="-52975954" to="-1014336997" departLane="best" fromTaz="martin_linges_sydost" toTaz="odd_nansens_vest" />
  <trip id="veh_142" type="car" depart="62.3" from="115505254" to="362382740" departLane="best" fromTaz="snv_syd" toTaz="e18_ost" />
  <trip id="veh_3036" type="car" depart="62.4" from="-52975954" to="113815194" departLane="best" fromTaz="martin_linges_sydost" toTaz="e18_vest" />
  <trip id="veh_2629" type="car" depart="62.7" from="-27194983" to="113815194" departLane="best" fromTaz="snv_east" toTaz="e18_vest" />
  <trip id="veh_914" type="car" depart="63.1" from="1071762868" to="-27184811#3" departLane="best" fromTaz="e18_vest" toTaz="rolfsbukt_syd" />
  <trip id="veh_3157" type="car" depart="63.1" from="-52975954" to="362382740" departLane="best" fromTaz="martin_linges_sydost" toTaz="e18_ost" />
  <trip id="veh_2822" type="car" depart="64.9" from="-27194983" to="13797030" departLane="best" fromTaz="snv_east" toTaz="ring3_nord" />
  <trip id="veh_3262" type="car" depart="65.3" from="-52975954" to="13797030" departLane="best" fromTaz="martin_linges_sydost" toTaz="ring3_nord" />
  <trip id="veh_1905" type="car" depart="66.2" from="32321958" to="113815194" departLane="best" fromTaz="wideroe_nordvest" toTaz="e18_vest" />
  <trip id="veh_1590" type="car" depart="67.8" from="32321958" to="115505232" departLane="best" fromTaz="wideroe_nordvest" toTaz="snv_syd" />
  <trip id="veh_2267" type="car" depart="70.0" from="32321958" to="313965530#1" departLane="best" fromTaz="wideroe_nordvest" toTaz="snv_nordost" />
  <trip id="veh_4" type="car" depart="73.5" from="115505254" to="113815194" departLane="best" fromTaz="snv_syd" toTaz="e18_vest" />
  <trip id="veh_482" type="car" depart="75.0" from="115505254" to="-27184811#3" departLane="best" fromTaz="snv_syd" toTaz="rolfsbukt_syd" />
  <trip id="veh_866" type="car" depart="75.1" from="1071762868" to="-1014336997" departLane="best" fromTaz="e18_vest" toTaz="odd_nansens_vest" />
  <trip id="veh_984" type="car" depart="75.4" from="13797031" to="115505232" departLane="best" fromTaz="e18_ost" toTaz="snv_syd" />
  <trip id="veh_1095" type="car" depart="76.4" from="13797031" to="32321957" departLane="best" fromTaz="e18_ost" toTaz="wideroe_nordvest" />
  <trip id="veh_1445" type="car" depart="80.2" from="131600897" to="27194983" departLane="best" fromTaz="ring3_nord" toTaz="snv_east" />
  <trip id="veh_582" type="car" depart="81.0" from="1071762868" to="115505232" departLane="best" fromTaz="e18_vest" toTaz="snv_syd" />
  <trip id="veh_2067" type="car" depart="81.3" from="32321958" to="362382740" departLane="best" fromTaz="wideroe_nordvest" toTaz="e18_ost" />
  <trip id="veh_1591" type="car" depart="82.3" from="32321958" to="115505232" departLane="best" fromTaz="wideroe_nordvest" toTaz="snv_syd" />
  <trip id="veh_3037" type="car" depart="83.0" from="-52975954" to="113815194" departLane="best" fromTaz="martin_linges_sydost" toTaz="e18_vest" />
  <trip id="veh_1906" type="car" depart="84.7" from="32321958" to="113815194" departLane="best" fromTaz="wideroe_nordvest" toTaz="e18_vest" />
  <trip id="veh_709" type="car" depart="86.0" from="1071762868" to="32321957" departLane="best" fromTaz="e18_vest" toTaz="wideroe_nordvest" />
  <trip id="veh_2428" type="car" depart="87.9" from="32321958" to="-27184811#3" departLane="best" fromTaz="wideroe_nordvest" toTaz="rolfsbukt_syd" />
  <trip id="veh_350" type="car" depart="88.9" from="115505254" to="32321957" departLane="best" fromTaz="snv_syd" toTaz="wideroe_nordvest" />
  <trip id="veh_1335" type="car" depart="89.3" from="131600897" to="115505232" departLane="best" fromTaz="ring3_nord" toTaz="snv_syd" />
  <trip id="veh_2732" type="car" depart="90.3" from="-27194983" to="362382740" departLane="best" fromTaz="snv_east" toTaz="e18_ost" />
  <trip id="veh_1592" type="car" depart="90.7" from="32321958" to="115505232" departLane="best" fromTaz="wideroe_nordvest" toTaz="snv_syd" />
  <trip id="veh_886" type="car" depart="91.0" from="1071762868" to="52975954" departLane="best" fromTaz="e18_vest" toTaz="martin_linges_sydost" />
  <trip id="veh_3538" type="car" depart="91.0" from="27184811#3" to="13797030" departLane="best" fromTaz="rolfsbukt_syd" toTaz="ring3_nord" />
  <trip id="veh_1517" type="car" depart="93.4" from="466495271#0" to="32321957" departLane="best" fromTaz="snv_nordost" toTaz="wideroe_nordvest" />
  <trip id="veh_143" type="car" depart="94.2" from="115505254" to="362382740" departLane="best" fromTaz="snv_syd" toTaz="e18_ost" />
  <trip id="veh_2630" type="car" depart="94.6" from="-27194983" to="113815194" departLane="best" fromTaz="snv_east" toTaz="e18_vest" />
  <trip id="veh_915" type="car" depart="95.1" from="1071762868" to="-27184811#3" departLane="best" fromTaz="e18_vest" toTaz="rolfsbukt_syd" />
  <trip id="veh_3434" type="car" depart="95.2" from="-52975954" to="-27184811#3" departLane="best" fromTaz="martin_linges_sydost" toTaz="rolfsbukt_syd" />
  <trip id="veh_3308" type="car" depart="100.2" from="-52975954" to="313965530#1" departLane="best" fromTaz="martin_linges_sydost" toTaz="snv_nordost" />
  <trip id="veh_2068" type="car" depart="100.3" from="32321958" to="362382740" departLane="best" fromTaz="wideroe_nordvest" toTaz="e18_ost" />
  <trip id="veh_1486" type="car" depart="101.9" from="466495265#0" to="115505232" departLane="best" fromTaz="snv_nordost" toTaz="snv_syd" />
  <trip id="veh_3339" type="car" depart="102.3" from="-52975954" to="32321957" departLane="best" fromTaz="martin_linges_sydost" toTaz="wideroe_nordvest" />
  <trip id="veh_2429" type="car" depart="103.1" from="32321958" to="-27184811#3" departLane="best" fromTaz="wideroe_nordvest" toTaz="rolfsbukt_syd" />
  <trip id="veh_1096" type="car" depart="104.2" from="13797031" to="32321957" departLane="best" fromTaz="e18_ost" toTaz="wideroe_nordvest" />
  <trip id="veh_985" type="car" depart="104.9" from="13797031" to="115505232" departLane="best" fromTaz="e18_ost" toTaz="snv_syd" />
  <trip id="veh_1593" type="car" depart="105.4" from="32321958" to="115505232" departLane="best" fromTaz="wideroe_nordvest" toTaz="snv_syd" />
  <trip id="veh_3158" type="car" depart="105.9" from="-52975954" to="362382740" departLane="best" fromTaz="martin_linges_sydost" toTaz="e18_ost" />
  <trip id="veh_5" type="car" depart="107.0" from="115505254" to="113815194" departLane="best" fromTaz="snv_syd" toTaz="e18_vest" />
  <trip id="veh_2733" type="car" depart="107.6" from="-27194983" to="362382740" departLane="best" fromTaz="snv_east" toTaz="e18_ost" />
  <trip id="veh_2888" type="car" depart="107.7" from="-27194983" to="32321957" departLane="best" fromTaz="snv_east" toTaz="wideroe_nordvest" />
  <trip id="veh_2356" type="car" depart="107.7" from="32321958" to="52975954" departLane="best" fromTaz="wideroe_nordvest" toTaz="martin_linges_sydost" />
  <trip id="veh_710" type="car" depart="108.7" from="1071762868" to="32321957" departLane="best" fromTaz="e18_vest" toTaz="wideroe_nordvest" />
  <trip id="veh_2207" type="car" depart="108.8" from="32321958" to="13797030" departLane="best" fromTaz="wideroe_nordvest" toTaz="ring3_nord" />
  <trip id="veh_1594" type="car" depart="112.8" from="32321958" to="115505232" departLane="best" fromTaz="wideroe_nordvest" toTaz="snv_syd" />
  <trip id="veh_2964" type="car" depart="113.1" from="-27194983" to="52975954" departLane="best" fromTaz="snv_east" toTaz="martin_linges_sydost" />
  <trip id="veh_1907" type="car" depart="113.8" from="32321958" to="113815194" departLane="best" fromTaz="wideroe_nordvest" toTaz="e18_vest" />
  <trip id="veh_459" type="car" depart="114.6" from="115505254" to="52975954" departLane="best" fromTaz="snv_syd" toTaz="martin_linges_sydost" />
  <trip id="veh_583" type="car" depart="116.2" from="1071762868" to="115505232" departLane="best" fromTaz="e18_vest" toTaz="snv_syd" />
  <trip id="veh_3038" type="car" depart="119.0" from="-52975954" to="113815194" departLane="best" fromTaz="martin_linges_sydost" toTaz="e18_vest" />
  <trip id="veh_314" type="car" depart="123.3" from="115505254" to="313965530#1" departLane="best" fromTaz="snv_syd" toTaz="snv_nordost" />
  <trip id="veh_1097" type="car" depart="124.2" from="13797031" to="32321957" departLane="best" fromTaz="e18_ost" toTaz="wideroe_nordvest" />
  <trip id="veh_144" type="car" depart="124.4" from="115505254" to="362382740" departLane="best" fromTaz="snv_syd" toTaz="e18_ost" />
  <trip id="veh_2430" type="car" depart="126.8" from="32321958" to="-27184811#3" departLane="best" fromTaz="wideroe_nordvest" toTaz="rolfsbukt_syd" />
  <trip id="veh_1595" type="car" depart="127.2" from="32321958" to="115505232" departLane="best" fromTaz="wideroe_nordvest" toTaz="snv_syd" />
  <trip id="veh_3159" type="car" depart="128.1" from="-52975954" to="362382740" departLane="best" fromTaz="martin_linges_sydost" toTaz="e18_ost" />
  <trip id="veh_6" type="car" depart="128.7" from="115505254" to="113815194" departLane="best" fromTaz="snv_syd" toTaz="e18_vest" />
  <trip id="veh_3573" type="car" depart="129.9" from="27184811#3" to="27194983" departLane="best" fromTaz="rolfsbukt_syd" toTaz="snv_east" />
  <trip id="veh_351" type="car" depart="131.0" from="115505254" to="32321957" departLane="best" fromTaz="snv_syd" toTaz="wideroe_nordvest" />
  <trip id="veh_1908" type="car" depart="131.8" from="32321958" to="113815194" departLane="best" fromTaz="wideroe_nordvest" toTaz="e18_vest" />
  <trip id="veh_1275" type="car" depart="131.9" from="13797031" to="-27184811#3" departLane="best" fromTaz="e18_ost" toTaz="rolfsbukt_syd" />
  <trip id="veh_711" type="car" depart="132.5" from="1071762868" to="32321957" departLane="best" fromTaz="e18_vest" toTaz="wideroe_nordvest" />
  <trip id="veh_2069" type="car" depart="135.2" from="32321958" to="362382740" departLane="best" fromTaz="wideroe_nordvest" toTaz="e18_ost" />
  <trip id="veh_1383" type="car" depart="135.8" from="131600897" to="32321957" departLane="best" fromTaz="ring3_nord" toTaz="wideroe_nordvest" />
  <trip id="veh_1596" type="car" depart="137.0" from="32321958" to="115505232" departLane="best" fromTaz="wideroe_nordvest" toTaz="snv_syd" />
  <trip id="veh_2631" type="car" depart="137.8" from="-27194983" to="113815194" departLane="best" fromTaz="snv_east" toTaz="e18_vest" />
  <trip id="veh_986" type="car" depart="143.0" from="13797031" to="115505232" departLane="best" fromTaz="e18_ost" toTaz="snv_syd" />
  <trip id="veh_483" type="car" depart="144.5" from="115505254" to="-27184811#3" departLane="best" fromTaz="snv_syd" toTaz="rolfsbukt_syd" />
  <trip id="veh_2431" type="car" depart="145.5" from="32321958" to="-27184811#3" departLane="best" fromTaz="wideroe_nordvest" toTaz="rolfsbukt_syd" />
  <trip id="veh_2861" type="car" depart="145.7" from="-27194983" to="313965530#1" departLane="best" fromTaz="snv_east" toTaz="snv_nordost" />
  <trip id="veh_2070" type="car" depart="146.4" from="32321958" to="362382740" departLane="best" fromTaz="wideroe_nordvest" toTaz="e18_ost" />
  <trip id="veh_2357" type="car" depart="147.3" from="32321958" to="52975954" departLane="best" fromTaz="wideroe_nordvest" toTaz="martin_linges_sydost" />
  <trip id="veh_3340" type="car" depart="147.8" from="-52975954" to="32321957" departLane="best" fromTaz="martin_linges_sydost" toTaz="wideroe_nordvest" />
  <trip id="veh_3435" type="car" depart="148.7" from="-52975954" to="-27184811#3" departLane="best" fromTaz="martin_linges_sydost" toTaz="rolfsbukt_syd" />
  <trip id="veh_584" type="car" depart="148.7" from="1071762868" to="115505232" departLane="best" fromTaz="e18_vest" toTaz="snv_syd" />
  <trip id="veh_2980" type="car" depart="148.9" from="-52975954" to="115505232" departLane="best" fromTaz="martin_linges_sydost" toTaz="snv_syd" />
  <trip id="veh_1597" type="car" depart="149.5" from="32321958" to="115505232" departLane="best" fromTaz="wideroe_nordvest" toTaz="snv_syd" />
  <trip id="veh_145" type="car" depart="149.8" from="115505254" to="362382740" departLane="best" fromTaz="snv_syd" toTaz="e18_ost" />
  <trip id="veh_1909" type="car" depart="152.8" from="32321958" to="113815194" departLane="best" fromTaz="wideroe_nordvest" toTaz="e18_vest" />
  <trip id="veh_1098" type="car" depart="153.0" from="13797031" to="32321957" departLane="best" fromTaz="e18_ost" toTaz="wideroe_nordvest" />
  <trip id="veh_3039" type="car" depart="154.0" from="-52975954" to="113815194" departLane="best" fromTaz="martin_linges_sydost" toTaz="e18_vest" />
  <trip id="veh_1336" type="car" depart="154.0" from="131600897" to="115505232" departLane="best" fromTaz="ring3_nord" toTaz="snv_syd" />
  <trip id="veh_2611" type="car" depart="154.9" from="-27194983" to="115505232" departLane="best" fromTaz="snv_east" toTaz="snv_syd" />
  <trip id="veh_916" type="car" depart="156.3" from="1071762868" to="-27184811#3" departLane="best" fromTaz="e18_vest" toTaz="rolfsbukt_syd" />
  <trip id="veh_3517" type="car" depart="156.3" from="27184811#3" to="362382740" departLane="best" fromTaz="rolfsbukt_syd" toTaz="e18_ost" />
  <trip id="veh_263" type="car" depart="157.0" from="115505254" to="13797030" departLane="best" fromTaz="snv_syd" toTaz="ring3_nord" />
  <trip id="veh_712" type="car" depart="157.4" from="1071762868" to="32321957" departLane="best" fromTaz="e18_vest" toTaz="wideroe_nordvest" />
  <trip id="veh_2734" type="car" depart="158.0" from="-27194983" to="362382740" departLane="best" fromTaz="snv_east" toTaz="e18_ost" />
  <trip id="veh_1598" type="car" depart="158.8" from="32321958" to="115505232" departLane="best" fromTaz="wideroe_nordvest" toTaz="snv_syd" />
  <trip id="veh_7" type="car" depart="159.4" from="115505254" to="113815194" departLane="best" fromTaz="snv_syd" toTaz="e18_vest" />
  <trip id="veh_2208" type="car" depart="160.1" from="32321958" to="13797030" departLane="best" fromTaz="wideroe_nordvest" toTaz="ring3_nord" />
  <trip id="veh_453" type="car" depart="161.1" from="115505254" to="27194983" departLane="best" fromTaz="snv_syd" toTaz="snv_east" />
  <trip id="veh_3263" type="car" depart="162.5" from="-52975954" to="13797030" departLane="best" fromTaz="martin_linges_sydost" toTaz="ring3_nord" />