<?xml version='1.0' encoding='utf-8'?>
<routes>
  <vType id="car" vClass="passenger" length="4.5" maxSpeed="50.0" accel="2.6" decel="4.5" sigma="0.5" jmTimegapMinor="1.5" />
  <trip id="veh_2210" type="car" depart="0.0" from="467782354#1" to="32321958" />
  <trip id="veh_2990" type="car" depart="0.0" from="48017210#15" to="-52754549" />
  <trip id="veh_3525" type="car" depart="0.0" from="-1248839127#0" to="115505248" />
  <trip id="veh_4080" type="car" depart="0.0" from="13798311#1" to="-115505244#0" />
  <trip id="veh_0" type="car" depart="0.5" from="115505247" to="467782354#3" />
  <trip id="veh_2010" type="car" depart="1.0" from="466495198" to="150887967" />
  <trip id="veh_1330" type="car" depart="1.1" from="32321958" to="-47035940" />
  <trip id="veh_1055" type="car" depart="1.5" from="1457864036" to="466495271#0" />
  <trip id="veh_3630" type="car" depart="2.3" from="515410724#2" to="-48017210#3" />
  <trip id="veh_605" type="car" depart="2.3" from="313965530#1" to="-1457864036" />
  <trip id="veh_2211" type="car" depart="4.8" from="467782354#0" to="-1457864036" />
  <trip id="veh_1" type="car" depart="5.1" from="125556485" to="115505225" />
  <trip id="veh_2991" type="car" depart="6.4" from="-48017210#5" to="969642449" />
  <trip id="veh_1331" type="car" depart="6.5" from="401685145" to="467782354#0" />
  <trip id="veh_3631" type="car" depart="8.2" from="-52754549" to="200498484" />
  <trip id="veh_3550" type="car" depart="8.4" from="-225338535#0" to="115505257" />
  <trip id="veh_606" type="car" depart="8.8" from="315957532" to="32321957" />
  <trip id="veh_2212" type="car" depart="9.7" from="115505255" to="401685146" />
  <trip id="veh_1332" type="car" depart="12.0" from="-1457864036" to="13798307#1" />
  <trip id="veh_4081" type="car" depart="12.3" from="47035943" to="225338535#0" />
  <trip id="veh_2" type="car" depart="12.7" from="473440889" to="1077838537" />
  <trip id="veh_2213" type="car" depart="14.2" from="115505255" to="32321958" />
  <trip id="veh_2992" type="car" depart="15.0" from="115505241" to="13795988" />
  <trip id="veh_607" type="car" depart="16.1" from="1059461022" to="-1457864036" />
  <trip id="veh_1056" type="car" depart="16.2" from="1457864036" to="-113813267" />
  <trip id="veh_3632" type="car" depart="16.6" from="115505198#2" to="1248839127#0" />
  <trip id="veh_1333" type="car" depart="17.1" from="401685145" to="1077838537" />
  <trip id="veh_2214" type="car" depart="17.3" from="466495198" to="-1457864036" />
  <trip id="veh_3" type="car" depart="18.2" from="150887967" to="-47035940" />
  <trip id="veh_2011" type="car" depart="18.2" from="13798307#1" to="466134866#0" />
  <trip id="veh_3633" type="car" depart="22.0" from="320581596#1" to="515410680#1" />
  <trip id="veh_2993" type="car" depart="22.1" from="-43216026" to="115505198#0" />
  <trip id="veh_608" type="car" depart="22.3" from="97122627" to="401685146" />
  <trip id="veh_1334" type="car" depart="22.3" from="32321958" to="466495198" />
  <trip id="veh_4" type="car" depart="22.4" from="125556487" to="466495198" />
  <trip id="veh_2215" type="car" depart="24.1" from="115505255" to="32321957" />
  <trip id="veh_4082" type="car" depart="25.0" from="-52754549" to="-225338534" />
  <trip id="veh_1335" type="car" depart="25.8" from="-1457864036" to="115505225" />
  <trip id="veh_2216" type="car" depart="26.7" from="115505255" to="32321957" />
  <trip id="veh_1057" type="car" depart="26.9" from="32321958" to="150888065" />
  <trip id="veh_2994" type="car" depart="28.0" from="-48017210#10" to="115505198#1" />
  <trip id="veh_5" type="car" depart="30.1" from="697648978" to="115505226" />
  <trip id="veh_1336" type="car" depart="30.6" from="1457864036" to="13797495" />
  <trip id="veh_3634" type="car" depart="30.9" from="1077840622" to="43216026" />
  <trip id="veh_2217" type="car" depart="33.3" from="-47035940" to="401685146" />
  <trip id="veh_609" type="car" depart="33.4" from="150887967" to="1457864036" />
  <trip id="veh_2995" type="car" depart="33.9" from="48017210#11" to="1077838538" />
  <trip id="veh_4083" type="car" depart="34.5" from="515410724#2" to="27184811#3" />
  <trip id="veh_2218" type="car" depart="35.8" from="115505225" to="401685145" />
  <trip id="veh_6" type="car" depart="36.5" from="473440889" to="13798307#0" />
  <trip id="veh_1337" type="car" depart="36.8" from="401685145" to="13798307#1" />
  <trip id="veh_610" type="car" depart="37.9" from="150926454" to="32321957" />
  <trip id="veh_2012" type="car" depart="39.5" from="-47035940" to="131600897" />
  <trip id="veh_7" type="car" depart="40.7" from="968251937" to="115505255" />
  <trip id="veh_1338" type="car" depart="41.2" from="401685146" to="115505225" />
  <trip id="veh_2996" type="car" depart="41.8" from="48017210#3" to="115505198#0" />
  <trip id="veh_3635" type="car" depart="41.9" from="115505198#1" to="1248839127#0" />
  <trip id="veh_2219" type="car" depart="42.2" from="467782354#1" to="32321958" />
  <trip id="veh_1058" type="car" depart="42.9" from="32321957" to="-150888042" />
  <trip id="veh_2220" type="car" depart="45.8" from="115505225" to="32321957" />
  <trip id="veh_611" type="car" depart="47.4" from="8367454" to="-1457864036" />
  <trip id="veh_4084" type="car" depart="47.5" from="13797498" to="-225338535#0" />
  <trip id="veh_2997" type="car" depart="48.2" from="-48017210#12" to="115505198#2" />
  <trip id="veh_1339" type="car" depart="48.5" from="32321958" to="13797495" />
  <trip id="veh_8" type="car" depart="48.7" from="113815195" to="115505225" />
  <trip id="veh_3551" type="car" depart="49.2" from="115505259" to="1077840622" />
  <trip id="veh_3636" type="car" depart="50.3" from="13798311#1" to="-1248839127#0" />
  <trip id="veh_1059" type="car" depart="50.4" from="401685146" to="466495265#0" />
  <trip id="veh_2221" type="car" depart="51.6" from="115505226" to="32321958" />
  <trip id="veh_1340" type="car" depart="53.4" from="1457864036" to="13797495" />
  <trip id="veh_2998" type="car" depart="54.0" from="-48017210#14" to="47035943" />
  <trip id="veh_2013" type="car" depart="54.2" from="13798307#0" to="150887968" />
  <trip id="veh_9" type="car" depart="54.3" from="150888055" to="115505255" />
  <trip id="veh_2222" type="car" depart="54.5" from="466495198" to="-1457864036" />
  <trip id="veh_612" type="car" depart="56.5" from="385760758" to="32321957" />
  <trip id="veh_3637" type="car" depart="57.6" from="115505198#0" to="115505241" />
  <trip id="veh_10" type="car" depart="58.3" from="150888055" to="1077838537" />
  <trip id="veh_1341" type="car" depart="58.7" from="-1457864036" to="13798307#1" />
  <trip id="veh_2999" type="car" depart="59.5" from="48017210#1" to="969642449" />
  <trip id="veh_2223" type="car" depart="59.6" from="1077838537" to="1457864036" />
  <trip id="veh_3638" type="car" depart="62.4" from="-52754549" to="48017210#6" />
  <trip id="veh_1342" type="car" depart="62.8" from="1457864036" to="467782354#0" />
  <trip id="veh_613" type="car" depart="63.4" from="466495201#0" to="401685145" />
  <trip id="veh_1060" type="car" depart="63.5" from="401685145" to="968251938" />
  <trip id="veh_11" type="car" depart="64.0" from="466495275" to="13797495" />
  <trip id="veh_2224" type="car" depart="64.9" from="115505225" to="32321958" />
  <trip id="veh_4085" type="car" depart="65.6" from="13797498" to="225338534" />
  <trip id="veh_3000" type="car" depart="67.5" from="-200498484" to="-52754549" />
  <trip id="veh_1343" type="car" depart="69.7" from="32321958" to="1077838537" />
  <trip id="veh_2225" type="car" depart="69.9" from="13798307#0" to="32321958" />
  <trip id="veh_614" type="car" depart="70.3" from="150926454" to="32321958" />
  <trip id="veh_2014" type="car" depart="72.6" from="466495198" to="971292799" />
  <trip id="veh_12" type="car" depart="72.6" from="97122627" to="115505255" />
  <trip id="veh_3639" type="car" depart="72.8" from="515410724#2" to="-43216026" />
  <trip id="veh_1344" type="car" depart="72.9" from="32321958" to="467782354#1" />
  <trip id="veh_2226" type="car" depart="73.1" from="13798307#1" to="401685146" />
  <trip id="veh_3001" type="car" depart="75.3" from="115505245" to="13798311#1" />
  <trip id="veh_4086" type="car" depart="77.2" from="515410724#2" to="-115505244#1" />
  <trip id="veh_13" type="car" depart="78.5" from="466134866#0" to="466495198" />
  <trip id="veh_2227" type="car" depart="78.8" from="115505226" to="401685145" />
  <trip id="veh_615" type="car" depart="79.1" from="1457764832" to="1457864036" />
  <trip id="veh_1345" type="car" depart="79.2" from="32321958" to="13798307#1" />
  <trip id="veh_3552" type="car" depart="80.3" from="115505248" to="-52754549" />
  <trip id="veh_1061" type="car" depart="80.3" from="32321957" to="115505247" />
  <trip id="veh_3640" type="car" depart="81.1" from="320581596#1" to="27195187#2" />
  <trip id="veh_14" type="car" depart="82.0" from="205946628" to="1077838537" />
  <trip id="veh_3002" type="car" depart="82.7" from="-1248839127#0" to="-52754549" />
  <trip id="veh_2228" type="car" depart="83.7" from="13797495" to="-1457864036" />
  <trip id="veh_1346" type="car" depart="84.3" from="-1457864036" to="466495198" />
  <trip id="veh_4087" type="car" depart="85.6" from="13797498" to="970292662" />
  <trip id="veh_2229" type="car" depart="88.1" from="1077838537" to="-1457864036" />
  <trip id="veh_1347" type="car" depart="89.0" from="32321957" to="-47035940" />
  <trip id="veh_3003" type="car" depart="89.2" from="48017210#15" to="115505198#1" />
  <trip id="veh_15" type="car" depart="89.4" from="971292799" to="467782354#0" />
  <trip id="veh_3641" type="car" depart="90.1" from="115505198#1" to="515410680#1" />
  <trip id="veh_616" type="car" depart="90.2" from="115505247" to="401685146" />
  <trip id="veh_2230" type="car" depart="91.4" from="13798307#0" to="32321958" />
  <trip id="veh_1062" type="car" depart="94.4" from="401685146" to="150888044" />
  <trip id="veh_617" type="car" depart="94.5" from="467248352" to="32321958" />
  <trip id="veh_3642" type="car" depart="94.6" from="115505257" to="-48017210#5" />
  <trip id="veh_3004" type="car" depart="94.6" from="27195187#2" to="115505198#2" />
  <trip id="veh_2015" type="car" depart="95.0" from="115505226" to="150888042" />
  <trip id="veh_2231" type="car" depart="96.4" from="467782354#3" to="401685145" />
  <trip id="veh_1348" type="car" depart="96.5" from="401685145" to="115505226" />
  <trip id="veh_16" type="car" depart="96.6" from="150926454" to="467782354#0" />
  <trip id="veh_1349" type="car" depart="99.1" from="-1457864036" to="467782354#1" />
  <trip id="veh_17" type="car" depart="100.1" from="466495196" to="-47035940" />
  <trip id="veh_2232" type="car" depart="100.8" from="467782354#1" to="401685146" />
  <trip id="veh_4088" type="car" depart="101.1" from="320581596#1" to="-115505244#1" />
  <trip id="veh_3005" type="car" depart="102.3" from="-48017210#3" to="13797498" />
  <trip id="veh_1063" type="car" depart="102.4" from="401685145" to="466204277#2-AddedOnRampEdge" />
  <trip id="veh_3643" type="car" depart="103.2" from="115505198#0" to="277705937#0" />
  <trip id="veh_2233" type="car" depart="105.8" from="115505255" to="1457864036" />
  <trip id="veh_618" type="car" depart="106.0" from="-113813267" to="32321957" />
  <trip id="veh_1350" type="car" depart="106.6" from="1457864036" to="467782354#3" />
  <trip id="veh_2016" type="car" depart="107.3" from="115505255" to="150888033" />
  <trip id="veh_18" type="car" depart="107.7" from="150888042" to="1077838537" />
  <trip id="veh_3006" type="car" depart="109.0" from="115505245" to="-52754549" />
  <trip id="veh_3644" type="car" depart="110.3" from="115505198#0" to="48017210#1" />
  <trip id="veh_2234" type="car" depart="110.9" from="13798307#0" to="-1457864036" />
  <trip id="veh_1351" type="car" depart="112.4" from="32321957" to="115505225" />
  <trip id="veh_3007" type="car" depart="113.0" from="48017210#6" to="13797498" />
  <trip id="veh_619" type="car" depart="113.3" from="385760758" to="1457864036" />
  <trip id="veh_19" type="car" depart="114.3" from="466495275" to="13798307#0" />
  <trip id="veh_2235" type="car" depart="114.8" from="13798307#1" to="32321958" />
  <trip id="veh_1352" type="car" depart="115.2" from="401685145" to="467782354#0" />
  <trip id="veh_4089" type="car" depart="115.2" from="13795988" to="-225338535#1" />
  <trip id="veh_1064" type="car" depart="115.4" from="32321958" to="150888042" />
  <trip id="veh_20" type="car" depart="118.2" from="150926454" to="115505225" />
  <trip id="veh_3645" type="car" depart="119.4" from="969642449" to="48017210#15" />
  <trip id="veh_3008" type="car" depart="119.4" from="-277705937#1" to="115505207" />
  <trip id="veh_2236" type="car" depart="120.5" from="466495198" to="401685146" />
  <trip id="veh_1353" type="car" depart="121.1" from="-1457864036" to="-47035940" />
  <trip id="veh_620" type="car" depart="122.4" from="150888033" to="401685146" />
  <trip id="veh_21" type="car" depart="124.5" from="1180739476" to="467782354#1" />
  <trip id="veh_2017" type="car" depart="125.6" from="13798307#0" to="150888042" />
  <trip id="veh_2237" type="car" depart="125.9" from="1077838537" to="401685145" />
  <trip id="veh_3646" type="car" depart="126.0" from="1077840622" to="48017210#13" />
  <trip id="veh_1354" type="car" depart="126.4" from="32321957" to="13798307#1" />
  <trip id="veh_4090" type="car" depart="126.8" from="115505257" to="-225338535#1" />
  <trip id="veh_3009" type="car" depart="128.7" from="-48017210#10" to="320581596#1" />
  <trip id="veh_2238" type="car" depart="129.6" from="13798307#0" to="401685145" />
  <trip id="veh_621" type="car" depart="130.0" from="466204274-AddedOnRampEdge" to="1457864036" />
  <trip id="veh_22" type="car" depart="130.1" from="466495201#0" to="467782354#0" />
  <trip id="veh_3553" type="car" depart="131.2" from="-27184811#1" to="1077838538" />
  <trip id="veh_1065" type="car" depart="132.1" from="1457864036" to="466204277#1" />
  <trip id="veh_1355" type="car" depart="133.1" from="401685145" to="466495198" />
  <trip id="veh_622" type="car" depart="134.2" from="466495201#0" to="32321958" />
  <trip id="veh_3647" type="car" depart="134.5" from="515410724#2" to="-48017210#15" />
  <trip id="veh_3010" type="car" depart="134.8" from="115505241" to="969642449" />
  <trip id="veh_2239" type="car" depart="135.0" from="115505255" to="32321957" />
  <trip id="veh_4091" type="car" depart="136.9" from="13798311#1" to="27184811#3" />
  <trip id="veh_1356" type="car" depart="137.1" from="401685146" to="115505225" />
  <trip id="veh_23" type="car" depart="137.3" from="467248352-AddedOnRampEdge" to="467782354#3" />
  <trip id="veh_2240" type="car" depart="137.8" from="1077838537" to="32321957" />
  <trip id="veh_3011" type="car" depart="141.0" from="48017210#3" to="47035943" />
  <trip id="veh_24" type="car" depart="141.9" from="466134866#1" to="13798307#0" />
  <trip id="veh_623" type="car" depart="142.4" from="385760757" to="-1457864036" />
  <trip id="veh_1357" type="car" depart="142.4" from="32321958" to="13797495" />
  <trip id="veh_3648" type="car" depart="142.5" from="115505257" to="-48017210#15" />
  <trip id="veh_1066" type="car" depart="143.1" from="1457864036" to="466204277#1" />
  <trip id="veh_2241" type="car" depart="143.5" from="13798307#0" to="32321958" />
  <trip id="veh_2018" type="car" depart="145.2" from="-47035940" to="467248352" />
  <trip id="veh_3012" type="car" depart="147.3" from="1248839127#1" to="13798311#1" />
  <trip id="veh_25" type="car" depart="147.9" from="697648978" to="115505226" />
  <trip id="veh_2242" type="car" depart="148.4" from="467782354#3" to="1457864036" />
  <trip id="veh_1358" type="car" depart="149.0" from="1457864036" to="13798307#0" />
  <trip id="veh_1359" type="car" depart="152.0" from="1457864036" to="467782354#3" />
  <trip id="veh_3649" type="car" depart="152.7" from="-52754549" to="115505254" />
  <trip id="veh_2243" type="car" depart="153.0" from="467782354#0" to="1457864036" />
  <trip id="veh_624" type="car" depart="153.5" from="150888047" to="401685146" />
  <trip id="veh_3013" type="car" depart="153.8" from="48017210#11" to="115505198#1" />
  <trip id="veh_4092" type="car" depart="154.2" from="115505198#1" to="27184811#3" />
  <trip id="veh_26" type="car" depart="155.4" from="313965530#1" to="115505226" />
  <trip id="veh_2244" type="car" depart="157.0" from="467782354#1" to="401685146" />
  <trip id="veh_1067" type="car" depart="158.2" from="-1457864036" to="467248352-AddedOffRampEdge" />
  <trip id="veh_3650" type="car" depart="158.4" from="1077840622" to="277705937#0" />
  <trip id="veh_625" type="car" depart="159.3" from="466495196" to="401685145" />
  <trip id="veh_1360" type="car" depart="160.4" from="1457864036" to="467782354#3" />
  <trip id="veh_3014" type="car" depart="160.5" from="1248839127#0" to="115505198#2" />
  <trip id="veh_3526" type="car" depart="161.5" from="200498484" to="-27184811#3" />
  <trip id="veh_27" type="car" depart="161.8" from="150888047" to="13798307#0" />
  <trip id="veh_1361" type="car" depart="162.6" from="401685145" to="115505225" />
  <trip id="veh_4093" type="car" depart="162.8" from="969642449" to="-115505244#0" />
  <trip id="veh_2245" type="car" depart="162.9" from="13797495" to="401685145" />
  <trip id="veh_2246" type="car" depart="164.8" from="-47035940" to="-1457864036" />
  <trip id="veh_28" type="car" depart="165.8" from="1180739479" to="467782354#0" />
  <trip id="veh_2019" type="car" depart="166.4" from="13798307#1" to="385760758" />
  <trip id="veh_3015" type="car" depart="167.1" from="1248839127#1" to="-52754549" />
  <trip id="veh_626" type="car" depart="168.2" from="150888044" to="1457864036" />
  <trip id="veh_1362" type="car" depart="168.2" from="401685146" to="467782354#1" />
  <trip id="veh_3651" type="car" depart="168.9" from="115505198#0" to="-27195187#3" />
  <trip id="veh_2247" type="car" depart="169.4" from="1077838537" to="401685145" />
  <trip id="veh_3554" type="car" depart="171.6" from="-115505244#1" to="1077840622" />
  <trip id="veh_1068" type="car" depart="173.2" from="-1457864036" to="150926454" />
  <trip id="veh_29" type="car" depart="173.9" from="150888047" to="115505226" />
  <trip id="veh_2248" type="car" depart="174.3" from="13798307#1" to="32321957" />
  <trip id="veh_3652" type="car" depart="174.3" from="115505207" to="1077838551#1" />
  <trip id="veh_2020" type="car" depart="175.6" from="466495198" to="915918523" />
  <trip id="veh_1363" type="car" depart="175.6" from="32321958" to="467782354#1" />
  <trip id="veh_3016" type="car" depart="176.6" from="-48017210#10" to="13798311#1" />
  <trip id="veh_627" type="car" depart="177.0" from="1071762868" to="32321957" />
  <trip id="veh_30" type="car" depart="179.1" from="30504996" to="467782354#1" />
  <trip id="veh_4094" type="car" depart="179.2" from="13797498" to="-27184811#1" />
  <trip id="veh_2249" type="car" depart="179.2" from="115505255" to="32321957" />
  <trip id="veh_1364" type="car" depart="179.2" from="401685145" to="467782354#0" />
  <trip id="veh_3017" type="car" depart="183.4" from="48017210#15" to="-52754549" />
  <trip id="veh_2250" type="car" depart="183.8" from="-47035940" to="401685145" />
  <trip id="veh_3653" type="car" depart="183.8" from="13798311#1" to="277705937#0" />
  <trip id="veh_1365" type="car" depart="183.9" from="-1457864036" to="467782354#1" />
  <trip id="veh_628" type="car" depart="184.0" from="-113813267" to="1457864036" />
  <trip id="veh_31" type="car" depart="184.3" from="13797031" to="115505225" />
  <trip id="veh_4095" type="car" depart="186.6" from="-52754549" to="-225338535#1" />
  <trip id="veh_1069" type="car" depart="186.7" from="1457864036" to="27195543#1" />
  <trip id="veh_2251" type="car" depart="188.1" from="467782354#0" to="401685146" />
  <trip id="veh_1366" type="car" depart="189.3" from="-1457864036" to="-47035940" />
  <trip id="veh_32" type="car" depart="189.5" from="697648978" to="466495198" />
  <trip id="veh_3018" type="car" depart="190.0" from="-48017210#15" to="115505207" />
  <trip id="veh_3654" type="car" depart="190.1" from="13795988" to="-48017210#10" />
  <trip id="veh_629" type="car" depart="193.4" from="128877276" to="32321958" />
  <trip id="veh_2021" type="car" depart="194.5" from="467782354#0" to="473440889" />
  <trip id="veh_2252" type="car" depart="194.9" from="115505226" to="401685145" />
  <trip id="veh_3019" type="car" depart="195.4" from="48017210#17" to="47035943" />
  <trip id="veh_33" type="car" depart="195.5" from="92221929" to="13798307#0" />
  <trip id="veh_1367" type="car" depart="196.5" from="32321958" to="13798307#1" />
  <trip id="veh_630" type="car" depart="197.7" from="478475143" to="401685145" />
  <trip id="veh_2253" type="car" depart="198.8" from="467782354#3" to="-1457864036" />
  <trip id="veh_1070" type="car" depart="199.2" from="401685145" to="338682320" />
  <trip id="veh_1368" type="car" depart="200.8" from="401685145" to="115505255" />
  <trip id="veh_3655" type="car" depart="201.1" from="47035943" to="-1248839127#0" />
  <trip id="veh_3020" type="car" depart="201.4" from="-277705937#1" to="47035943" />
  <trip id="veh_2254" type="car" depart="201.9" from="467782354#0" to="1457864036" />
  <trip id="veh_4096" type="car" depart="202.9" from="1077838538" to="225338535#0" />
  <trip id="veh_34" type="car" depart="203.7" from="315957532" to="13797495" />
  <trip id="veh_1369" type="car" depart="206.4" from="1457864036" to="115505226" />
  <trip id="veh_35" type="car" depart="207.3" from="-150888042" to="466495198" />
  <trip id="veh_2255" type="car" depart="207.3" from="467782354#1" to="401685145" />
  <trip id="veh_631" type="car" depart="207.4" from="478475143" to="1457864036" />
  <trip id="veh_1071" type="car" depart="208.4" from="401685146" to="1071762868" />
  <trip id="veh_3656" type="car" depart="208.5" from="115505207" to="27195187#2" />
  <trip id="veh_3021" type="car" depart="210.1" from="-27195187#3" to="13795988" />
  <trip id="veh_4097" type="car" depart="211.7" from="115505198#0" to="-225338535#0" />
  <trip id="veh_2022" type="car" depart="212.1" from="13798307#0" to="150888049" />
  <trip id="veh_1370" type="car" depart="212.4" from="401685146" to="-47035940" />
  <trip id="veh_2256" type="car" depart="213.1" from="115505225" to="-1457864036" />
  <trip id="veh_3022" type="car" depart="213.4" from="48017210#11" to="13798311#1" />
  <trip id="veh_3657" type="car" depart="213.7" from="515410724#2" to="-1248839127#0" />
  <trip id="veh_36" type="car" depart="214.2" from="313965526" to="1077838537" />
  <trip id="veh_1371" type="car" depart="216.4" from="401685146" to="1077838537" />
  <trip id="veh_632" type="car" depart="216.5" from="466495271#0" to="-1457864036" />
  <trip id="veh_2257" type="car" depart="217.5" from="115505255" to="32321957" />
  <trip id="veh_37" type="car" depart="218.9" from="1059461022" to="467782354#1" />
  <trip id="veh_3023" type="car" depart="220.5" from="27195187#2" to="515410724#2" />
  <trip id="veh_2258" type="car" depart="221.4" from="1077838537" to="401685146" />
  <trip id="veh_3555" type="car" depart="222.2" from="115505223" to="969642449" />
  <trip id="veh_1372" type="car" depart="222.9" from="32321957" to="467782354#0" />
  <trip id="veh_633" type="car" depart="223.1" from="466204274" to="401685145" />
  <trip id="veh_1072" type="car" depart="224.6" from="-1457864036" to="115505219" />
  <trip id="veh_3658" type="car" depart="225.3" from="13798311#1" to="-200498484" />
  <trip id="veh_38" type="car" depart="225.8" from="466495196" to="13798307#0" />
  <trip id="veh_2259" type="car" depart="226.0" from="115505255" to="32321958" />
  <trip id="veh_4098" type="car" depart="227.2" from="515410724#2" to="225338535#0" />
  <trip id="veh_1373" type="car" depart="228.0" from="1457864036" to="13798307#0" />
  <trip id="veh_3024" type="car" depart="229.2" from="27195187#2" to="1077840622" />
  <trip id="veh_3659" type="car" depart="230.2" from="47035943" to="-277705937#1" />
  <trip id="veh_2260" type="car" depart="231.3" from="467782354#1" to="32321957" />
  <trip id="veh_634" type="car" depart="231.6" from="338682318" to="401685145" />
  <trip id="veh_39" type="car" depart="231.6" from="466134866#1" to="466495198" />
  <trip id="veh_2023" type="car" depart="233.5" from="115505225" to="466134866#0" />
  <trip id="veh_1374" type="car" depart="234.0" from="-1457864036" to="466495198" />
  <trip id="veh_2261" type="car" depart="234.7" from="1077838537" to="32321957" />
  <trip id="veh_1073" type="car" depart="236.3" from="-1457864036" to="13797031" />
  <trip id="veh_3025" type="car" depart="236.9" from="-1248839127#0" to="1077838538" />
  <trip id="veh_40" type="car" depart="237.1" from="478475143" to="-47035940" />
  <trip id="veh_635" type="car" depart="238.0" from="150888047" to="401685146" />
  <trip id="veh_3660" type="car" depart="238.9" from="13798311#1" to="-1248839127#0" />
  <trip id="veh_1375" type="car" depart="238.9" from="-1457864036" to="115505255" />
  <trip id="veh_4099" type="car" depart="239.6" from="-52754549" to="-225338535#0" />
  <trip id="veh_2262" type="car" depart="240.8" from="13798307#0" to="32321958" />
  <trip id="veh_3026" type="car" depart="242.1" from="-48017210#17" to="115505257" />
  <trip id="veh_1376" type="car" depart="242.3" from="-1457864036" to="13798307#1" />
  <trip id="veh_2263" type="car" depart="244.2" from="-47035940" to="32321957" />
  <trip id="veh_41" type="car" depart="244.6" from="915918523" to="467782354#1" />
  <trip id="veh_636" type="car" depart="246.0" from="466134866#1" to="401685146" />
  <trip id="veh_1074" type="car" depart="246.5" from="-1457864036" to="30504996" />
  <trip id="veh_3027" type="car" depart="247.0" from="-1248839127#1" to="47035943" />
  <trip id="veh_1377" type="car" depart="247.9" from="1457864036" to="115505255" />
  <trip id="veh_3661" type="car" depart="249.4" from="-52754549" to="-43216026" />
  <trip id="veh_2264" type="car" depart="250.5" from="115505255" to="1457864036" />
  <trip id="veh_4100" type="car" depart="251.1" from="115505257" to="-27184811#0" />
  <trip id="veh_42" type="car" depart="251.3" from="1431145262#0" to="467782354#1" />
  <trip id="veh_2024" type="car" depart="253.0" from="467782354#3" to="113815194" />
  <trip id="veh_2265" type="car" depart="253.7" from="13798307#1" to="1457864036" />
  <trip id="veh_3028" type="car" depart="254.8" from="200498484" to="115505198#0" />
  <trip id="veh_1378" type="car" depart="255.2" from="1457864036" to="13797495" />
  <trip id="veh_43" type="car" depart="255.3" from="150888042" to="13798307#0" />
  <trip id="veh_637" type="car" depart="256.1" from="-1180739476" to="401685145" />
  <trip id="veh_3662" type="car" depart="256.2" from="515410724#2" to="1248839127#1" />
  <trip id="veh_3556" type="car" depart="257.4" from="970292662" to="115505198#0" />
  <trip id="veh_2266" type="car" depart="258.8" from="115505225" to="401685146" />
  <trip id="veh_1379" type="car" depart="260.1" from="32321957" to="115505225" />
  <trip id="veh_44" type="car" depart="260.6" from="113815195" to="467782354#3" />
  <trip id="veh_3029" type="car" depart="260.8" from="115505254" to="47035943" />
  <trip id="veh_1075" type="car" depart="261.9" from="401685146" to="466204277#2" />
  <trip id="veh_2267" type="car" depart="263.1" from="115505225" to="401685145" />
  <trip id="veh_1380" type="car" depart="263.2" from="32321958" to="115505226" />
  <trip id="veh_638" type="car" depart="264.7" from="113813267" to="1457864036" />
  <trip id="veh_3663" type="car" depart="265.7" from="1077838538" to="-48017210#17" />
  <trip id="veh_4101" type="car" depart="267.7" from="515410724#2" to="225338535#1" />
  <trip id="veh_2268" type="car" depart="268.4" from="115505226" to="401685145" />
  <trip id="veh_45" type="car" depart="269.1" from="13797031" to="466495198" />
  <trip id="veh_3030" type="car" depart="270.0" from="-48017210#5" to="115505257" />
  <trip id="veh_3664" type="car" depart="270.3" from="47035943" to="515410724#0" />
  <trip id="veh_1381" type="car" depart="270.6" from="32321958" to="13797495" />
  <trip id="veh_639" type="car" depart="271.7" from="313965530#1" to="-1457864036" />
  <trip id="veh_2269" type="car" depart="272.7" from="13798307#1" to="401685146" />
  <trip id="veh_2025" type="car" depart="274.1" from="1077838537" to="13797030" />
  <trip id="veh_1382" type="car" depart="274.5" from="-1457864036" to="467782354#1" />
  <trip id="veh_46" type="car" depart="274.7" from="466204277#2" to="1077838537" />
  <trip id="veh_4102" type="car" depart="276.1" from="13797498" to="970292662" />
  <trip id="veh_2270" type="car" depart="276.3" from="-47035940" to="-1457864036" />
  <trip id="veh_1076" type="car" depart="277.0" from="32321958" to="315957532" />
  <trip id="veh_3031" type="car" depart="277.8" from="-200498484" to="115505198#1" />
  <trip id="veh_1383" type="car" depart="279.3" from="-1457864036" to="467782354#0" />
  <trip id="veh_640" type="car" depart="280.1" from="150888044" to="1457864036" />
  <trip id="veh_2271" type="car" depart="280.3" from="467782354#3" to="32321957" />
  <trip id="veh_47" type="car" depart="281.0" from="150888044" to="467782354#1" />
  <trip id="veh_3665" type="car" depart="281.9" from="515410724#2" to="-48017210#14" />
  <trip id="veh_3032" type="car" depart="282.6" from="-48017210#3" to="-52754549" />
  <trip id="veh_1077" type="car" depart="284.7" from="401685145" to="467248352-AddedOnRampEdge" />
  <trip id="veh_48" type="car" depart="285.6" from="113815194" to="115505225" />
  <trip id="veh_2026" type="car" depart="286.1" from="467782354#1" to="1059461022" />
  <trip id="veh_641" type="car" depart="286.4" from="125556485" to="32321957" />
  <trip id="veh_1384" type="car" depart="286.4" from="1457864036" to="1077838537" />
  <trip id="veh_2272" type="car" depart="286.9" from="-47035940" to="32321958" />