<?xml version='1.0' encoding='utf-8'?>
<routes>
  <vType id="car" vClass="passenger" length="4.5" maxSpeed="50.0" accel="2.6" decel="4.5" sigma="0.5" jmTimegapMinor="1.5" />
  <trip id="veh_1428" type="car" depart="0.0" from="32321958" to="115505219" />
  <trip id="veh_1800" type="car" depart="0.0" from="32321958" to="115505226" />
  <trip id="veh_2991" type="car" depart="0.0" from="467782354#3" to="401685146" />
  <trip id="veh_4047" type="car" depart="0.0" from="115505241" to="969642449" />
  <trip id="veh_4804" type="car" depart="0.0" from="970292662" to="1077840622" />
  <trip id="veh_0" type="car" depart="0.4" from="115505247" to="467782354#3" />
  <trip id="veh_2721" type="car" depart="0.6" from="115505255" to="1063373267#0" />
  <trip id="veh_4912" type="car" depart="1.1" from="13798311#1" to="-48017210#15" />
  <trip id="veh_819" type="car" depart="1.5" from="697648978" to="32321958" />
  <trip id="veh_5521" type="car" depart="2.3" from="320581596#1" to="115505217" />
  <trip id="veh_2992" type="car" depart="3.4" from="13798307#0" to="401685145" />
  <trip id="veh_1" type="car" depart="3.8" from="125556485" to="115505225" />
  <trip id="veh_4771" type="car" depart="4.4" from="1077838551#1" to="-27184811#3" />
  <trip id="veh_1801" type="car" depart="4.5" from="-1457864036" to="115505226" />
  <trip id="veh_4048" type="car" depart="5.4" from="48017210#6" to="969642449" />
  <trip id="veh_4913" type="car" depart="5.4" from="969642449" to="-48017210#1" />
  <trip id="veh_2993" type="car" depart="6.0" from="467782354#1" to="401685146" />
  <trip id="veh_1429" type="car" depart="7.4" from="32321958" to="150887967" />
  <trip id="veh_820" type="car" depart="7.6" from="697648978" to="401685145" />
  <trip id="veh_1802" type="car" depart="7.7" from="-1457864036" to="466495198" />
  <trip id="veh_5522" type="car" depart="7.9" from="115505207" to="115505217" />
  <trip id="veh_2994" type="car" depart="9.4" from="-47035940" to="401685146" />
  <trip id="veh_2" type="car" depart="9.4" from="473440889" to="1077838537" />
  <trip id="veh_821" type="car" depart="10.5" from="131600897" to="32321957" />
  <trip id="veh_4049" type="car" depart="11.2" from="48017210#4" to="1077840622" />
  <trip id="veh_1803" type="car" depart="12.1" from="1457864036" to="13798307#1" />
  <trip id="veh_4914" type="car" depart="12.8" from="-52754549" to="48017210#17" />
  <trip id="veh_2722" type="car" depart="13.4" from="13797495" to="466134866#1" />
  <trip id="veh_3" type="car" depart="13.4" from="150887967" to="-47035940" />
  <trip id="veh_2995" type="car" depart="13.5" from="1077838537" to="32321957" />
  <trip id="veh_4050" type="car" depart="14.2" from="200498484" to="969642449" />
  <trip id="veh_1804" type="car" depart="15.4" from="32321957" to="13797495" />
  <trip id="veh_4" type="car" depart="16.5" from="125556487" to="466495198" />
  <trip id="veh_822" type="car" depart="16.7" from="466495265#0" to="32321958" />
  <trip id="veh_4915" type="car" depart="16.7" from="115505207" to="27195187#0" />
  <trip id="veh_2996" type="car" depart="18.0" from="13798307#0" to="401685145" />
  <trip id="veh_1805" type="car" depart="18.7" from="401685146" to="-47035940" />
  <trip id="veh_4051" type="car" depart="19.4" from="43216026" to="115505198#1" />
  <trip id="veh_1430" type="car" depart="19.7" from="-1457864036" to="466495271#0" />
  <trip id="veh_2997" type="car" depart="20.2" from="115505225" to="401685146" />
  <trip id="veh_5523" type="car" depart="20.5" from="13795988" to="27184811#3" />
  <trip id="veh_5" type="car" depart="22.2" from="697648978" to="115505226" />
  <trip id="veh_2723" type="car" depart="23.7" from="13797495" to="467248352-AddedOffRampEdge" />
  <trip id="veh_1806" type="car" depart="24.0" from="401685145" to="466495198" />
  <trip id="veh_4052" type="car" depart="24.3" from="-200498484" to="13797498" />
  <trip id="veh_2998" type="car" depart="24.9" from="1077838537" to="32321958" />
  <trip id="veh_823" type="car" depart="24.9" from="466495271#0" to="401685145" />
  <trip id="veh_4916" type="car" depart="25.1" from="115505198#1" to="1248839127#0" />
  <trip id="veh_5524" type="car" depart="25.7" from="515410724#2" to="-27184811#1" />
  <trip id="veh_1807" type="car" depart="26.5" from="32321958" to="467782354#1" />
  <trip id="veh_6" type="car" depart="26.9" from="473440889" to="13798307#0" />
  <trip id="veh_2999" type="car" depart="27.0" from="115505226" to="32321958" />
  <trip id="veh_4917" type="car" depart="27.9" from="-52754549" to="1248839127#1" />
  <trip id="veh_3000" type="car" depart="29.7" from="467782354#3" to="-1457864036" />
  <trip id="veh_4805" type="car" depart="29.8" from="-27184811#1" to="47035943" />
  <trip id="veh_4053" type="car" depart="29.9" from="1248839127#1" to="515410724#2" />
  <trip id="veh_7" type="car" depart="30.0" from="968251937" to="115505255" />
  <trip id="veh_824" type="car" depart="30.4" from="113815191" to="-1457864036" />
  <trip id="veh_1431" type="car" depart="30.7" from="401685145" to="150888044" />
  <trip id="veh_1808" type="car" depart="30.8" from="32321957" to="-47035940" />
  <trip id="veh_4918" type="car" depart="33.8" from="115505257" to="-200498484" />
  <trip id="veh_3001" type="car" depart="34.6" from="467782354#1" to="401685146" />
  <trip id="veh_5525" type="car" depart="34.6" from="-52754549" to="115505217" />
  <trip id="veh_825" type="car" depart="34.6" from="97122627" to="401685145" />
  <trip id="veh_4054" type="car" depart="35.1" from="48017210#1" to="47035943" />
  <trip id="veh_8" type="car" depart="36.0" from="113815195" to="115505225" />
  <trip id="veh_1809" type="car" depart="36.0" from="1457864036" to="1077838537" />
  <trip id="veh_3002" type="car" depart="37.2" from="1077838537" to="401685145" />
  <trip id="veh_1810" type="car" depart="38.5" from="32321958" to="13797495" />
  <trip id="veh_2724" type="car" depart="39.5" from="115505255" to="915918523" />
  <trip id="veh_4055" type="car" depart="39.6" from="200498484" to="115505198#1" />
  <trip id="veh_826" type="car" depart="39.7" from="466495201#0" to="1457864036" />
  <trip id="veh_9" type="car" depart="40.1" from="150888055" to="115505255" />
  <trip id="veh_1432" type="car" depart="41.0" from="401685145" to="1180739476" />
  <trip id="veh_3003" type="car" depart="41.2" from="467782354#3" to="1457864036" />
  <trip id="veh_1811" type="car" depart="41.9" from="32321957" to="467782354#0" />
  <trip id="veh_4919" type="car" depart="42.2" from="1077840622" to="43216026" />
  <trip id="veh_10" type="car" depart="43.0" from="150888055" to="1077838537" />
  <trip id="veh_4056" type="car" depart="43.6" from="-1248839127#0" to="115505257" />
  <trip id="veh_3004" type="car" depart="43.8" from="13798307#1" to="32321957" />
  <trip id="veh_5526" type="car" depart="44.5" from="1077840622" to="970292662" />
  <trip id="veh_4920" type="car" depart="45.7" from="115505207" to="48017210#4" />
  <trip id="veh_1812" type="car" depart="46.0" from="1457864036" to="-47035940" />
  <trip id="veh_3005" type="car" depart="46.8" from="13798307#1" to="401685146" />
  <trip id="veh_11" type="car" depart="47.3" from="466495275" to="13797495" />
  <trip id="veh_827" type="car" depart="48.4" from="968251937" to="401685146" />
  <trip id="veh_1433" type="car" depart="49.3" from="32321958" to="150888055" />
  <trip id="veh_4057" type="car" depart="51.0" from="-48017210#12" to="115505257" />
  <trip id="veh_3006" type="car" depart="51.6" from="115505226" to="-1457864036" />
  <trip id="veh_2725" type="car" depart="51.8" from="115505225" to="466204277#1" />
  <trip id="veh_1813" type="car" depart="51.9" from="401685145" to="467782354#3" />
  <trip id="veh_4921" type="car" depart="52.0" from="1077838538" to="-1248839127#0" />
  <trip id="veh_5527" type="car" depart="53.6" from="115505198#1" to="115505259" />
  <trip id="veh_12" type="car" depart="53.7" from="97122627" to="115505255" />
  <trip id="veh_828" type="car" depart="53.8" from="1180739479" to="32321958" />
  <trip id="veh_3007" type="car" depart="53.9" from="467782354#1" to="32321958" />
  <trip id="veh_1814" type="car" depart="54.7" from="401685145" to="115505225" />
  <trip id="veh_4058" type="car" depart="55.2" from="48017210#4" to="115505198#1" />
  <trip id="veh_3008" type="car" depart="57.2" from="115505255" to="401685145" />
  <trip id="veh_1434" type="car" depart="57.3" from="-1457864036" to="125556485" />
  <trip id="veh_13" type="car" depart="58.0" from="466134866#0" to="466495198" />
  <trip id="veh_829" type="car" depart="58.1" from="150888050" to="32321957" />
  <trip id="veh_1815" type="car" depart="58.3" from="-1457864036" to="115505226" />
  <trip id="veh_4922" type="car" depart="58.6" from="115505198#0" to="-277705937#1" />
  <trip id="veh_4059" type="car" depart="60.0" from="-48017210#14" to="115505198#1" />
  <trip id="veh_14" type="car" depart="60.5" from="205946628" to="1077838537" />
  <trip id="veh_3009" type="car" depart="61.4" from="115505225" to="401685145" />
  <trip id="veh_1816" type="car" depart="61.7" from="-1457864036" to="467782354#1" />
  <trip id="veh_3010" type="car" depart="64.1" from="467782354#3" to="401685145" />
  <trip id="veh_4806" type="car" depart="64.6" from="-27184811#0" to="515410724#2" />
  <trip id="veh_4060" type="car" depart="64.6" from="-27195187#3" to="47035943" />
  <trip id="veh_4923" type="car" depart="64.7" from="1077838538" to="-48017210#1" />
  <trip id="veh_15" type="car" depart="66.1" from="971292799" to="467782354#0" />
  <trip id="veh_830" type="car" depart="66.6" from="113815205" to="1457864036" />
  <trip id="veh_1817" type="car" depart="66.7" from="401685146" to="-47035940" />
  <trip id="veh_5528" type="car" depart="67.8" from="115505207" to="115505244#0" />
  <trip id="veh_3011" type="car" depart="68.5" from="467782354#0" to="401685145" />
  <trip id="veh_4061" type="car" depart="69.0" from="48017210#13" to="-52754549" />
  <trip id="veh_1818" type="car" depart="69.3" from="401685146" to="115505225" />
  <trip id="veh_2726" type="car" depart="69.6" from="115505255" to="150926454" />
  <trip id="veh_1435" type="car" depart="69.7" from="32321957" to="697648978" />
  <trip id="veh_3012" type="car" depart="70.9" from="467782354#0" to="1457864036" />
  <trip id="veh_16" type="car" depart="71.3" from="150926454" to="467782354#0" />
  <trip id="veh_831" type="car" depart="72.5" from="-113813267" to="401685146" />
  <trip id="veh_4924" type="car" depart="72.6" from="115505257" to="43216026" />
  <trip id="veh_4062" type="car" depart="73.7" from="-48017210#1" to="-52754549" />
  <trip id="veh_17" type="car" depart="73.9" from="466495196" to="-47035940" />
  <trip id="veh_1819" type="car" depart="74.7" from="-1457864036" to="115505225" />
  <trip id="veh_3013" type="car" depart="75.5" from="115505225" to="32321957" />
  <trip id="veh_5529" type="car" depart="75.5" from="-52754549" to="27184811#1" />
  <trip id="veh_4925" type="car" depart="78.1" from="13795988" to="48017210#11" />
  <trip id="veh_1820" type="car" depart="78.1" from="32321957" to="466495198" />
  <trip id="veh_832" type="car" depart="78.6" from="466204274" to="1457864036" />
  <trip id="veh_1436" type="car" depart="79.0" from="401685145" to="466134866#1-AddedOnRampEdge" />
  <trip id="veh_3014" type="car" depart="79.3" from="115505226" to="401685145" />
  <trip id="veh_4063" type="car" depart="79.5" from="-1248839127#0" to="115505207" />
  <trip id="veh_18" type="car" depart="79.5" from="150888042" to="1077838537" />
  <trip id="veh_4926" type="car" depart="81.5" from="13797498" to="-1248839127#0" />
  <trip id="veh_3015" type="car" depart="82.3" from="115505255" to="1457864036" />
  <trip id="veh_1821" type="car" depart="82.8" from="32321957" to="13798307#1" />
  <trip id="veh_5530" type="car" depart="82.8" from="115505207" to="115505244#0" />
  <trip id="veh_2727" type="car" depart="83.4" from="115505255" to="13797031" />
  <trip id="veh_833" type="car" depart="83.5" from="1180739476" to="32321958" />
  <trip id="veh_4064" type="car" depart="84.1" from="-1248839127#0" to="-52754549" />
  <trip id="veh_19" type="car" depart="84.5" from="466495275" to="13798307#0" />
  <trip id="veh_3016" type="car" depart="85.9" from="-47035940" to="401685146" />
  <trip id="veh_1822" type="car" depart="86.5" from="-1457864036" to="467782354#3" />
  <trip id="veh_20" type="car" depart="87.3" from="150926454" to="115505225" />
  <trip id="veh_4927" type="car" depart="88.0" from="115505257" to="115505232" />
  <trip id="veh_1437" type="car" depart="88.4" from="32321957" to="385760758" />
  <trip id="veh_4065" type="car" depart="88.8" from="200498484" to="969642449" />
  <trip id="veh_3017" type="car" depart="89.0" from="467782354#0" to="32321957" />
  <trip id="veh_1823" type="car" depart="89.6" from="401685146" to="115505225" />
  <trip id="veh_834" type="car" depart="90.1" from="478475143" to="32321957" />
  <trip id="veh_5531" type="car" depart="91.6" from="115505207" to="27184811#1" />
  <trip id="veh_21" type="car" depart="92.0" from="1180739476" to="467782354#1" />
  <trip id="veh_3018" type="car" depart="92.4" from="13798307#1" to="-1457864036" />
  <trip id="veh_4772" type="car" depart="93.1" from="-48017210#15" to="27184811#3" />
  <trip id="veh_4807" type="car" depart="93.2" from="970292662" to="1077840622" />
  <trip id="veh_1824" type="car" depart="93.2" from="-1457864036" to="13798307#1" />
  <trip id="veh_4928" type="car" depart="93.3" from="13798311#1" to="48017210#6" />
  <trip id="veh_4066" type="car" depart="93.8" from="48017210#3" to="13798311#1" />
  <trip id="veh_2728" type="car" depart="94.2" from="115505255" to="467248352" />
  <trip id="veh_1438" type="car" depart="94.5" from="401685146" to="125556485" />
  <trip id="veh_835" type="car" depart="95.6" from="205946628" to="32321958" />
  <trip id="veh_22" type="car" depart="96.1" from="466495201#0" to="467782354#0" />
  <trip id="veh_3019" type="car" depart="96.4" from="467782354#1" to="401685146" />
  <trip id="veh_1825" type="car" depart="98.2" from="401685145" to="115505255" />
  <trip id="veh_3020" type="car" depart="99.8" from="-47035940" to="32321957" />
  <trip id="veh_4929" type="car" depart="100.0" from="13797498" to="-43216026" />
  <trip id="veh_836" type="car" depart="100.6" from="150926433" to="32321957" />
  <trip id="veh_4067" type="car" depart="100.8" from="515410680#1" to="1077840622" />
  <trip id="veh_23" type="car" depart="101.5" from="467248352-AddedOnRampEdge" to="467782354#3" />
  <trip id="veh_1826" type="car" depart="101.7" from="32321958" to="115505226" />
  <trip id="veh_3021" type="car" depart="102.1" from="13798307#0" to="32321957" />
  <trip id="veh_5532" type="car" depart="103.1" from="115505257" to="27184811#3" />
  <trip id="veh_1439" type="car" depart="103.6" from="32321957" to="150888042" />
  <trip id="veh_24" type="car" depart="104.8" from="466134866#1" to="13798307#0" />
  <trip id="veh_3022" type="car" depart="104.9" from="466495198" to="32321958" />
  <trip id="veh_2729" type="car" depart="105.2" from="115505225" to="150888047" />
  <trip id="veh_837" type="car" depart="105.6" from="466204277#2-AddedOnRampEdge" to="32321958" />
  <trip id="veh_1827" type="car" depart="105.7" from="401685145" to="13797495" />
  <trip id="veh_4068" type="car" depart="105.8" from="115505241" to="1077840622" />
  <trip id="veh_4930" type="car" depart="106.3" from="320581596#1" to="515410724#0" />
  <trip id="veh_1828" type="car" depart="109.0" from="32321958" to="115505255" />
  <trip id="veh_3023" type="car" depart="109.1" from="466495198" to="-1457864036" />
  <trip id="veh_25" type="car" depart="109.3" from="697648978" to="115505226" />
  <trip id="veh_4069" type="car" depart="110.9" from="-48017210#17" to="115505207" />
  <trip id="veh_4931" type="car" depart="111.2" from="115505198#0" to="48017210#3" />
  <trip id="veh_838" type="car" depart="112.2" from="466134866#1-AddedOnRampEdge" to="32321957" />
  <trip id="veh_5533" type="car" depart="112.6" from="-52754549" to="970292662" />
  <trip id="veh_3024" type="car" depart="113.3" from="115505226" to="-1457864036" />
  <trip id="veh_1829" type="car" depart="114.2" from="401685145" to="466495198" />
  <trip id="veh_4070" type="car" depart="114.6" from="-277705937#1" to="115505198#1" />
  <trip id="veh_26" type="car" depart="114.8" from="313965530#1" to="115505226" />
  <trip id="veh_3025" type="car" depart="115.5" from="13798307#0" to="401685145" />
  <trip id="veh_1440" type="car" depart="116.4" from="32321957" to="467782356" />
  <trip id="veh_1830" type="car" depart="116.5" from="401685145" to="115505225" />
  <trip id="veh_4932" type="car" depart="116.9" from="1077840622" to="-48017210#5" />
  <trip id="veh_4071" type="car" depart="118.5" from="48017210#15" to="969642449" />
  <trip id="veh_3026" type="car" depart="119.2" from="-47035940" to="32321958" />
  <trip id="veh_27" type="car" depart="119.5" from="150888047" to="13798307#0" />
  <trip id="veh_839" type="car" depart="119.7" from="150926457" to="32321957" />
  <trip id="veh_1831" type="car" depart="121.1" from="32321957" to="466495198" />
  <trip id="veh_5534" type="car" depart="121.2" from="-52754549" to="225338534" />
  <trip id="veh_2730" type="car" depart="121.9" from="13798307#1" to="1059461004" />
  <trip id="veh_3027" type="car" depart="122.1" from="1077838537" to="401685145" />
  <trip id="veh_28" type="car" depart="122.5" from="1180739479" to="467782354#0" />
  <trip id="veh_1441" type="car" depart="123.2" from="1457864036" to="466204277#1" />
  <trip id="veh_840" type="car" depart="123.8" from="8367454" to="1457864036" />
  <trip id="veh_4072" type="car" depart="123.9" from="27195187#2" to="115505207" />
  <trip id="veh_4933" type="car" depart="124.7" from="320581596#1" to="-43216026" />
  <trip id="veh_1832" type="car" depart="124.8" from="-1457864036" to="467782354#1" />
  <trip id="veh_3028" type="car" depart="126.8" from="467782354#3" to="1457864036" />
  <trip id="veh_29" type="car" depart="128.5" from="150888047" to="115505226" />
  <trip id="veh_4073" type="car" depart="129.0" from="-43216026" to="969642449" />
  <trip id="veh_1833" type="car" depart="129.0" from="401685146" to="115505225" />
  <trip id="veh_5535" type="car" depart="129.6" from="-52754549" to="-970292662" />
  <trip id="veh_4808" type="car" depart="129.8" from="225338535#0" to="115505257" />
  <trip id="veh_3029" type="car" depart="130.5" from="13798307#0" to="-1457864036" />
  <trip id="veh_4934" type="car" depart="130.8" from="115505198#1" to="-43216026" />
  <trip id="veh_841" type="car" depart="130.9" from="115505219" to="32321957" />
  <trip id="veh_30" type="car" depart="132.3" from="30504996" to="467782354#1" />
  <trip id="veh_1442" type="car" depart="133.4" from="401685146" to="338682318" />
  <trip id="veh_4074" type="car" depart="133.5" from="115505254" to="13797498" />
  <trip id="veh_2731" type="car" depart="133.8" from="467782354#1" to="385760757" />
  <trip id="veh_1834" type="car" depart="133.8" from="401685145" to="13797495" />
  <trip id="veh_3030" type="car" depart="133.8" from="115505226" to="1457864036" />
  <trip id="veh_4935" type="car" depart="135.1" from="115505198#1" to="-48017210#15" />
  <trip id="veh_3031" type="car" depart="136.0" from="1077838537" to="401685146" />
  <trip id="veh_842" type="car" depart="136.1" from="92221929" to="401685145" />
  <trip id="veh_31" type="car" depart="136.2" from="13797031" to="115505225" />
  <trip id="veh_1835" type="car" depart="137.5" from="1457864036" to="13797495" />
  <trip id="veh_4075" type="car" depart="138.7" from="515410724#0" to="115505207" />
  <trip id="veh_32" type="car" depart="140.0" from="697648978" to="466495198" />
  <trip id="veh_3032" type="car" depart="140.0" from="-47035940" to="32321958" />
  <trip id="veh_5536" type="car" depart="141.0" from="515410724#2" to="115505244#1" />
  <trip id="veh_1836" type="car" depart="141.2" from="401685146" to="466495198" />
  <trip id="veh_843" type="car" depart="142.7" from="150888042" to="1457864036" />
  <trip id="veh_4936" type="car" depart="142.7" from="115505198#1" to="1248839127#1" />
  <trip id="veh_1443" type="car" depart="142.9" from="401685145" to="113815194" />
  <trip id="veh_3033" type="car" depart="143.0" from="-47035940" to="401685145" />
  <trip id="veh_2732" type="car" depart="143.1" from="115505225" to="313965526" />
  <trip id="veh_33" type="car" depart="144.4" from="92221929" to="13798307#0" />
  <trip id="veh_4076" type="car" depart="144.7" from="1248839127#0" to="47035943" />
  <trip id="veh_1837" type="car" depart="145.4" from="1457864036" to="466495198" />
  <trip id="veh_844" type="car" depart="146.7" from="125556487" to="32321958" />
  <trip id="veh_3034" type="car" depart="147.2" from="13797495" to="32321957" />
  <trip id="veh_4937" type="car" depart="148.5" from="115505257" to="48017210#4" />
  <trip id="veh_1838" type="car" depart="149.0" from="401685145" to="115505225" />
  <trip id="veh_4077" type="car" depart="149.4" from="-48017210#17" to="115505198#1" />
  <trip id="veh_3035" type="car" depart="149.5" from="13798307#1" to="1457864036" />
  <trip id="veh_34" type="car" depart="150.5" from="315957532" to="13797495" />
  <trip id="veh_5537" type="car" depart="150.6" from="47035943" to="-225338535#0" />
  <trip id="veh_1839" type="car" depart="152.7" from="32321957" to="13798307#0" />
  <trip id="veh_1444" type="car" depart="153.0" from="32321958" to="1180739479" />
  <trip id="veh_4078" type="car" depart="153.1" from="515410680#1" to="115505198#0" />
  <trip id="veh_35" type="car" depart="153.1" from="-150888042" to="466495198" />
  <trip id="veh_4938" type="car" depart="153.8" from="969642449" to="115505241" />
  <trip id="veh_845" type="car" depart="153.9" from="131600897" to="32321958" />
  <trip id="veh_3036" type="car" depart="154.3" from="-47035940" to="32321957" />
  <trip id="veh_1840" type="car" depart="156.7" from="-1457864036" to="1077838537" />
  <trip id="veh_3037" type="car" depart="156.9" from="115505226" to="-1457864036" />
  <trip id="veh_2733" type="car" depart="157.8" from="-47035940" to="466134866#1-AddedOnRampEdge" />
  <trip id="veh_5538" type="car" depart="158.1" from="13797498" to="27184811#1" />
  <trip id="veh_36" type="car" depart="158.2" from="313965526" to="1077838537" />
  <trip id="veh_4079" type="car" depart="158.5" from="-277705937#1" to="115505198#1" />
  <trip id="veh_846" type="car" depart="159.8" from="150888055" to="32321957" />
  <trip id="veh_1841" type="car" depart="160.3" from="-1457864036" to="-47035940" />
  <trip id="veh_4939" type="car" depart="160.5" from="1077840622" to="1248839127#0" />
  <trip id="veh_3038" type="car" depart="160.8" from="467782354#0" to="32321958" />
  <trip id="veh_37" type="car" depart="161.7" from="1059461022" to="467782354#1" />
  <trip id="veh_3039" type="car" depart="164.2" from="467782354#1" to="32321958" />
  <trip id="veh_1445" type="car" depart="164.3" from="1457864036" to="150888055" />
  <trip id="veh_4080" type="car" depart="164.3" from="48017210#13" to="13795988" />
  <trip id="veh_1842" type="car" depart="165.0" from="1457864036" to="115505225" />
  <trip id="veh_4940" type="car" depart="165.2" from="13798311#1" to="-48017210#12" />
  <trip id="veh_847" type="car" depart="166.5" from="466204274-AddedOnRampEdge" to="401685146" />
  <trip id="veh_38" type="car" depart="166.8" from="466495196" to="13798307#0" />
  <trip id="veh_3040" type="car" depart="167.2" from="1077838537" to="-1457864036" />
  <trip id="veh_4081" type="car" depart="168.1" from="48017210#1" to="1077838538" />
  <trip id="veh_1843" type="car" depart="169.0" from="1457864036" to="1077838537" />
  <trip id="veh_4809" type="car" depart="169.7" from="115505248" to="47035943" />
  <trip id="veh_5539" type="car" depart="170.0" from="13798311#1" to="225338534" />
  <trip id="veh_39" type="car" depart="171.1" from="466134866#1" to="466495198" />
  <trip id="veh_3041" type="car" depart="171.3" from="13798307#0" to="32321957" />
  <trip id="veh_2734" type="car" depart="171.4" from="467782354#3" to="466134866#1" />
  <trip id="veh_4941" type="car" depart="171.7" from="969642449" to="-200498484" />
  <trip id="veh_1446" type="car" depart="171.9" from="32321958" to="150887968" />
  <trip id="veh_848" type="car" depart="171.9" from="466204274-AddedOnRampEdge" to="32321958" />
  <trip id="veh_1844" type="car" depart="172.0" from="-1457864036" to="-47035940" />
  <trip id="veh_4082" type="car" depart="173.0" from="48017210#11" to="320581596#1" />
  <trip id="veh_3042" type="car" depart="174.7" from="467782354#3" to="-1457864036" />
  <trip id="veh_40" type="car" depart="175.2" from="478475143" to="-47035940" />
  <trip id="veh_1845" type="car" depart="176.1" from="32321958" to="467782354#1" />
  <trip id="veh_849" type="car" depart="176.2" from="150926433" to="1457864036" />
  <trip id="veh_3043" type="car" depart="177.9" from="-47035940" to="32321958" />
  <trip id="veh_4942" type="car" depart="178.2" from="47035943" to="27195187#2" />
  <trip id="veh_4083" type="car" depart="178.4" from="200498484" to="115505257" />
  <trip id="veh_3044" type="car" depart="179.8" from="467782354#0" to="401685146" />
  <trip id="veh_1846" type="car" depart="179.8" from="401685145" to="467782354#3" />
  <trip id="veh_5540" type="car" depart="180.0" from="115505207" to="-115505244#1" />
  <trip id="veh_41" type="car" depart="180.7" from="915918523" to="467782354#1" />
  <trip id="veh_850" type="car" depart="182.0" from="473440889" to="32321958" />
  <trip id="veh_4084" type="car" depart="183.5" from="48017210#13" to="115505207" />
  <trip id="veh_4943" type="car" depart="183.7" from="47035943" to="-48017210#17" />
  <trip id="veh_1847" type="car" depart="183.9" from="-1457864036" to="13797495" />
  <trip id="veh_3045" type="car" depart="184.0" from="1077838537" to="401685146" />
  <trip id="veh_42" type="car" depart="185.6" from="1431145262#0" to="467782354#1" />
  <trip id="veh_2735" type="car" depart="186.2" from="13798307#1" to="150887968" />
  <trip id="veh_1447" type="car" depart="186.3" from="401685146" to="968251937" />
  <trip id="veh_3046" type="car" depart="186.6" from="-47035940" to="32321957" />
  <trip id="veh_1848" type="car" depart="187.0" from="401685146" to="1077838537" />
  <trip id="veh_851" type="car" depart="188.0" from="473440889" to="401685146" />
  <trip id="veh_43" type="car" depart="188.6" from="150888042" to="13798307#0" />
  <trip id="veh_5541" type="car" depart="189.1" from="47035943" to="-225338534" />
  <trip id="veh_4085" type="car" depart="190.3" from="48017210#13" to="-52754549" />
  <trip id="veh_1849" type="car" depart="190.4" from="1457864036" to="467782354#1" />
  <trip id="veh_4944" type="car" depart="190.9" from="-52754549" to="-48017210#12" />
  <trip id="veh_1448" type="car" depart="191.4" from="32321958" to="466134866#0" />
  <trip id="veh_3047" type="car" depart="191.6" from="13798307#0" to="-1457864036" />
  <trip id="veh_44" type="car" depart="192.5" from="113815195" to="467782354#3" />
  <trip id="veh_3048" type="car" depart="194.6" from="13798307#0" to="1457864036" />
  <trip id="veh_4086" type="car" depart="195.2" from="-1248839127#1" to="47035943" />
  <trip id="veh_1850" type="car" depart="195.4" from="-1457864036" to="13798307#1" />
  <trip id="veh_4945" type="car" depart="195.6" from="515410724#2" to="1077838551#1" />
  <trip id="veh_5542" type="car" depart="195.7" from="13795988" to="-225338534" />
  <trip id="veh_852" type="car" depart="196.7" from="467248352-AddedOffRampEdge" to="-1457864036" />
  <trip id="veh_3049" type="car" depart="198.5" from="467782354#1" to="401685145" />
  <trip id="veh_4087" type="car" depart="198.7" from="-48017210#10" to="13797498" />
  <trip id="veh_45" type="car" depart="198.8" from="13797031" to="466495198" />
  <trip id="veh_2736" type="car" depart="199.5" from="467782354#3" to="697648978" />
  <trip id="veh_4946" type="car" depart="199.8" from="115505198#2" to="-1248839127#0" />
  <trip id="veh_1851" type="car" depart="200.1" from="-1457864036" to="13797495" />
  <trip id="veh_3050" type="car" depart="200.1" from="13798307#0" to="32321958" />
  <trip id="veh_853" type="car" depart="202.2" from="466495201#0" to="401685146" />
  <trip id="veh_5543" type="car" depart="202.8" from="320581596#1" to="27184811#3" />
  <trip id="veh_46" type="car" depart="202.9" from="466204277#2" to="1077838537" />
  <trip id="veh_1852" type="car" depart="203.4" from="32321958" to="13797495" />
  <trip id="veh_1449" type="car" depart="204.1" from="401685145" to="-150888042" />
  <trip id="veh_4810" type="car" depart="204.5" from="-27184811#3" to="969642449" />
  <trip id="veh_4088" type="car" depart="205.1" from="1077838551#1" to="13797498" />
  <trip id="veh_3051" type="car" depart="205.1" from="467782354#0" to="401685145" />
  <trip id="veh_854" type="car" depart="205.3" from="113815195" to="32321958" />
  <trip id="veh_3052" type="car" depart="207.1" from="467782354#1" to="401685146" />
  <trip id="veh_4947" type="car" depart="207.2" from="115505257" to="200498484" />
  <trip id="veh_47" type="car" depart="207.6" from="150888044" to="467782354#1" />
  <trip id="veh_1853" type="car" depart="207.9" from="-1457864036" to="467782354#0" />
  <trip id="veh_4089" type="car" depart="208.9" from="-48017210#10" to="13797498" />
  <trip id="veh_1854" type="car" depart="210.5" from="-1457864036" to="467782354#3" />
  <trip id="veh_48" type="car" depart="211.0" from="113815194" to="115505225" />
  <trip id="veh_855" type="car" depart="211.5" from="971292799" to="1457864036" />
  <trip id="veh_4948" type="car" depart="211.7" from="515410724#2" to="515410724#0" />
  <trip id="veh_3053" type="car" depart="211.9" from="13798307#1" to="401685145" />
  <trip id="veh_2737" type="car" depart="213.2" from="13798307#1" to="915918523" />
  <trip id="veh_4090" type="car" depart="213.9" from="515410724#0" to="969642449" />