<?xml version='1.0' encoding='utf-8'?>
<routes>
  <vType id="car" vClass="passenger" length="4.5" maxSpeed="50.0" accel="2.6" decel="4.5" sigma="0.5" jmTimegapMinor="1.5" />
  <vType id="emergency" vClass="emergency" length="6.5" maxSpeed="38.89" accel="3.0" decel="5.0" sigma="0.0" speedFactor="1.0" jmDriveAfterRedTime="3" jmIgnoreKeepClearTime="3" color="1,0,0" />
  <trip id="veh_1" type="car" depart="0.0" from="115505254" to="313965530#1" departLane="best" fromTaz="snv_syd" toTaz="snv_nordost" />
  <trip id="veh_348" type="car" depart="0.0" from="115505254" to="32321957" departLane="best" fromTaz="snv_syd" toTaz="wideroe_nordvest" />
  <trip id="veh_481" type="car" depart="0.0" from="115505254" to="-27184811#3" departLane="best" fromTaz="snv_syd" toTaz="rolfsbukt_syd" />
  <trip id="veh_538" type="car" depart="0.0" from="-53141119" to="115505232" departLane="best" fromTaz="bbv_west" toTaz="snv_syd" />
  <trip id="veh_549" type="car" depart="0.0" from="-53141119" to="313965530#1" departLane="best" fromTaz="bbv_west" toTaz="snv_nordost" />
  <trip id="veh_550" type="car" depart="0.0" from="-53141119" to="-1014336997" departLane="best" fromTaz="bbv_west" toTaz="odd_nansens_vest" />
  <trip id="veh_551" type="car" depart="0.0" from="-53141119" to="27194983" departLane="best" fromTaz="bbv_west" toTaz="snv_east" />
  <trip id="veh_571" type="car" depart="0.0" from="-53141119" to="52975954" departLane="best" fromTaz="bbv_west" toTaz="martin_linges_sydost" />
  <trip id="veh_579" type="car" depart="0.0" from="466495271#0" to="115505232" departLane="best" fromTaz="snv_nordost" toTaz="snv_syd" />
  <trip id="veh_888" type="car" depart="0.0" from="466495271#0" to="53141119" departLane="best" fromTaz="snv_nordost" toTaz="bbv_west" />
  <trip id="veh_893" type="car" depart="0.0" from="466495271#0" to="32321957" departLane="best" fromTaz="snv_nordost" toTaz="wideroe_nordvest" />
  <trip id="veh_1319" type="car" depart="0.0" from="466495271#0" to="27194983" departLane="best" fromTaz="snv_nordost" toTaz="snv_east" />
  <trip id="veh_1342" type="car" depart="0.0" from="466495271#0" to="52975954" departLane="best" fromTaz="snv_nordost" toTaz="martin_linges_sydost" />
  <trip id="veh_1411" type="car" depart="0.0" from="466495271#0" to="-27184811#3" departLane="best" fromTaz="snv_nordost" toTaz="rolfsbukt_syd" />
  <trip id="veh_1902" type="car" depart="0.0" from="32321958" to="313965530#1" departLane="best" fromTaz="wideroe_nordvest" toTaz="snv_nordost" />
  <trip id="veh_2330" type="car" depart="0.0" from="32321958" to="27194983" departLane="best" fromTaz="wideroe_nordvest" toTaz="snv_east" />
  <trip id="veh_2424" type="car" depart="0.0" from="32321958" to="-27184811#3" departLane="best" fromTaz="wideroe_nordvest" toTaz="rolfsbukt_syd" />
  <trip id="veh_2600" type="car" depart="0.0" from="-53158894" to="313965530#1" departLane="best" fromTaz="odd_nansens_vest" toTaz="snv_nordost" />
  <trip id="veh_2609" type="car" depart="0.0" from="-53158894" to="-27184811#3" departLane="best" fromTaz="odd_nansens_vest" toTaz="rolfsbukt_syd" />
  <trip id="veh_2627" type="car" depart="0.0" from="-27194983" to="313965530#1" departLane="best" fromTaz="snv_east" toTaz="snv_nordost" />
  <trip id="veh_2951" type="car" depart="0.0" from="-27194983" to="-1014336997" departLane="best" fromTaz="snv_east" toTaz="odd_nansens_vest" />
  <trip id="veh_2968" type="car" depart="0.0" from="-27194983" to="-27184811#3" departLane="best" fromTaz="snv_east" toTaz="rolfsbukt_syd" />
  <trip id="veh_2978" type="car" depart="0.0" from="-52975954" to="115505232" departLane="best" fromTaz="martin_linges_sydost" toTaz="snv_syd" />
  <trip id="veh_3033" type="car" depart="0.0" from="-52975954" to="53141119" departLane="best" fromTaz="martin_linges_sydost" toTaz="bbv_west" />
  <trip id="veh_1295" type="car" depart="0.2" from="466495271#0" to="-1014336997" departLane="best" fromTaz="snv_nordost" toTaz="odd_nansens_vest" />
  <trip id="veh_3034" type="car" depart="0.4" from="-52975954" to="313965530#1" departLane="best" fromTaz="martin_linges_sydost" toTaz="snv_nordost" />
  <trip id="veh_3337" type="car" depart="1.0" from="-52975954" to="32321957" departLane="best" fromTaz="martin_linges_sydost" toTaz="wideroe_nordvest" />
  <trip id="veh_573" type="car" depart="2.6" from="-53141119" to="-27184811#3" departLane="best" fromTaz="bbv_west" toTaz="rolfsbukt_syd" />
  <trip id="veh_1584" type="car" depart="3.2" from="32321958" to="115505232" departLane="best" fromTaz="wideroe_nordvest" toTaz="snv_syd" />
  <trip id="veh_2886" type="car" depart="4.4" from="-27194983" to="32321957" departLane="best" fromTaz="snv_east" toTaz="wideroe_nordvest" />
  <trip id="veh_3491" type="car" depart="6.0" from="27184811#3" to="313965530#1" departLane="best" fromTaz="rolfsbukt_syd" toTaz="snv_nordost" />
  <trip id="veh_894" type="car" depart="7.1" from="466495271#0" to="32321957" departLane="best" fromTaz="snv_nordost" toTaz="wideroe_nordvest" />
  <trip id="veh_3570" type="car" depart="8.4" from="27184811#3" to="-1014336997" departLane="best" fromTaz="rolfsbukt_syd" toTaz="odd_nansens_vest" />
  <trip id="veh_1903" type="car" depart="8.8" from="32321958" to="313965530#1" departLane="best" fromTaz="wideroe_nordvest" toTaz="snv_nordost" />
  <trip id="veh_435" type="car" depart="11.4" from="115505254" to="-1014336997" departLane="best" fromTaz="snv_syd" toTaz="odd_nansens_vest" />
  <trip id="veh_2" type="car" depart="11.5" from="115505254" to="313965530#1" departLane="best" fromTaz="snv_syd" toTaz="snv_nordost" />
  <trip id="veh_1585" type="car" depart="11.8" from="32321958" to="115505232" departLane="best" fromTaz="wideroe_nordvest" toTaz="snv_syd" />
  <trip id="veh_580" type="car" depart="12.2" from="466495271#0" to="115505232" departLane="best" fromTaz="snv_nordost" toTaz="snv_syd" />
  <trip id="veh_2628" type="car" depart="12.5" from="-27194983" to="313965530#1" departLane="best" fromTaz="snv_east" toTaz="snv_nordost" />
  <trip id="veh_3035" type="car" depart="13.5" from="-52975954" to="313965530#1" departLane="best" fromTaz="martin_linges_sydost" toTaz="snv_nordost" />
  <trip id="veh_2354" type="car" depart="14.0" from="32321958" to="52975954" departLane="best" fromTaz="wideroe_nordvest" toTaz="martin_linges_sydost" />
  <trip id="veh_2425" type="car" depart="14.7" from="32321958" to="-27184811#3" departLane="best" fromTaz="wideroe_nordvest" toTaz="rolfsbukt_syd" />
  <trip id="veh_895" type="car" depart="16.5" from="466495271#0" to="32321957" departLane="best" fromTaz="snv_nordost" toTaz="wideroe_nordvest" />
  <trip id="veh_2306" type="car" depart="17.8" from="32321958" to="-1014336997" departLane="best" fromTaz="wideroe_nordvest" toTaz="odd_nansens_vest" />
  <trip id="veh_3" type="car" depart="17.8" from="115505254" to="313965530#1" departLane="best" fromTaz="snv_syd" toTaz="snv_nordost" />
  <trip id="veh_1904" type="car" depart="18.9" from="32321958" to="313965530#1" departLane="best" fromTaz="wideroe_nordvest" toTaz="snv_nordost" />
  <trip id="veh_581" type="car" depart="19.9" from="466495265#0" to="115505232" departLane="best" fromTaz="snv_nordost" toTaz="snv_syd" />
  <trip id="veh_3433" type="car" depart="22.5" from="-52975954" to="-27184811#3" departLane="best" fromTaz="martin_linges_sydost" toTaz="rolfsbukt_syd" />
  <trip id="veh_1412" type="car" depart="22.6" from="466495265#0" to="-27184811#3" departLane="best" fromTaz="snv_nordost" toTaz="rolfsbukt_syd" />
  <trip id="veh_1586" type="car" depart="23.6" from="32321958" to="115505232" departLane="best" fromTaz="wideroe_nordvest" toTaz="snv_syd" />
  <trip id="veh_2629" type="car" depart="24.9" from="-27194983" to="313965530#1" departLane="best" fromTaz="snv_east" toTaz="snv_nordost" />
  <trip id="veh_3036" type="car" depart="24.9" from="-52975954" to="313965530#1" departLane="best" fromTaz="martin_linges_sydost" toTaz="snv_nordost" />
  <trip id="veh_1905" type="car" depart="26.5" from="32321958" to="313965530#1" departLane="best" fromTaz="wideroe_nordvest" toTaz="snv_nordost" />
  <trip id="veh_3554" type="car" depart="27.2" from="27184811#3" to="32321957" departLane="best" fromTaz="rolfsbukt_syd" toTaz="wideroe_nordvest" />
  <trip id="veh_896" type="car" depart="28.8" from="466495271#0" to="32321957" departLane="best" fromTaz="snv_nordost" toTaz="wideroe_nordvest" />
  <trip id="veh_4" type="car" depart="29.5" from="115505254" to="313965530#1" departLane="best" fromTaz="snv_syd" toTaz="snv_nordost" />
  <trip id="veh_349" type="car" depart="32.1" from="115505254" to="32321957" departLane="best" fromTaz="snv_syd" toTaz="wideroe_nordvest" />
  <trip id="veh_582" type="car" depart="32.5" from="466495271#0" to="115505232" departLane="best" fromTaz="snv_nordost" toTaz="snv_syd" />
  <trip id="veh_3480" type="car" depart="33.0" from="27184811#3" to="115505232" departLane="best" fromTaz="rolfsbukt_syd" toTaz="snv_syd" />
  <trip id="veh_3037" type="car" depart="33.2" from="-52975954" to="313965530#1" departLane="best" fromTaz="martin_linges_sydost" toTaz="snv_nordost" />
  <trip id="veh_1587" type="car" depart="33.2" from="32321958" to="115505232" departLane="best" fromTaz="wideroe_nordvest" toTaz="snv_syd" />
  <trip id="veh_897" type="car" depart="33.4" from="466495265#0" to="32321957" departLane="best" fromTaz="snv_nordost" toTaz="wideroe_nordvest" />
  <trip id="veh_1906" type="car" depart="34.0" from="32321958" to="313965530#1" departLane="best" fromTaz="wideroe_nordvest" toTaz="snv_nordost" />
  <trip id="veh_458" type="car" depart="36.1" from="115505254" to="52975954" departLane="best" fromTaz="snv_syd" toTaz="martin_linges_sydost" />
  <trip id="veh_2630" type="car" depart="37.6" from="-27194983" to="313965530#1" departLane="best" fromTaz="snv_east" toTaz="snv_nordost" />
  <trip id="veh_2887" type="car" depart="41.5" from="-27194983" to="32321957" departLane="best" fromTaz="snv_east" toTaz="wideroe_nordvest" />
  <trip id="veh_2426" type="car" depart="42.3" from="32321958" to="-27184811#3" departLane="best" fromTaz="wideroe_nordvest" toTaz="rolfsbukt_syd" />
  <trip id="veh_5" type="car" depart="42.8" from="115505254" to="313965530#1" departLane="best" fromTaz="snv_syd" toTaz="snv_nordost" />
  <trip id="veh_1413" type="car" depart="43.3" from="466495265#0" to="-27184811#3" departLane="best" fromTaz="snv_nordost" toTaz="rolfsbukt_syd" />
  <trip id="veh_1907" type="car" depart="45.6" from="32321958" to="313965530#1" departLane="best" fromTaz="wideroe_nordvest" toTaz="snv_nordost" />
  <trip id="veh_2979" type="car" depart="46.2" from="-52975954" to="115505232" departLane="best" fromTaz="martin_linges_sydost" toTaz="snv_syd" />
  <trip id="veh_583" type="car" depart="46.6" from="466495265#0" to="115505232" departLane="best" fromTaz="snv_nordost" toTaz="snv_syd" />
  <trip id="veh_2610" type="car" depart="47.0" from="-27194983" to="115505232" departLane="best" fromTaz="snv_east" toTaz="snv_syd" />
  <trip id="veh_898" type="car" depart="47.0" from="466495271#0" to="32321957" departLane="best" fromTaz="snv_nordost" toTaz="wideroe_nordvest" />
  <trip id="veh_3038" type="car" depart="47.5" from="-52975954" to="313965530#1" departLane="best" fromTaz="martin_linges_sydost" toTaz="snv_nordost" />
  <trip id="veh_3338" type="car" depart="48.9" from="-52975954" to="32321957" departLane="best" fromTaz="martin_linges_sydost" toTaz="wideroe_nordvest" />
  <trip id="veh_1588" type="car" depart="49.4" from="32321958" to="115505232" departLane="best" fromTaz="wideroe_nordvest" toTaz="snv_syd" />
  <trip id="veh_6" type="car" depart="51.6" from="115505254" to="313965530#1" departLane="best" fromTaz="snv_syd" toTaz="snv_nordost" />
  <trip id="veh_1908" type="car" depart="52.8" from="32321958" to="313965530#1" departLane="best" fromTaz="wideroe_nordvest" toTaz="snv_nordost" />
  <trip id="veh_899" type="car" depart="54.0" from="466495265#0" to="32321957" departLane="best" fromTaz="snv_nordost" toTaz="wideroe_nordvest" />
  <trip id="veh_2631" type="car" depart="54.8" from="-27194983" to="313965530#1" departLane="best" fromTaz="snv_east" toTaz="snv_nordost" />
  <trip id="veh_3574" type="car" depart="55.7" from="27184811#3" to="52975954" departLane="best" fromTaz="rolfsbukt_syd" toTaz="martin_linges_sydost" />
  <trip id="veh_1589" type="car" depart="56.2" from="32321958" to="115505232" departLane="best" fromTaz="wideroe_nordvest" toTaz="snv_syd" />
  <trip id="veh_1414" type="car" depart="57.2" from="466495265#0" to="-27184811#3" departLane="best" fromTaz="snv_nordost" toTaz="rolfsbukt_syd" />
  <trip id="veh_2427" type="car" depart="58.6" from="32321958" to="-27184811#3" departLane="best" fromTaz="wideroe_nordvest" toTaz="rolfsbukt_syd" />
  <trip id="veh_2355" type="car" depart="59.2" from="32321958" to="52975954" departLane="best" fromTaz="wideroe_nordvest" toTaz="martin_linges_sydost" />
  <trip id="veh_584" type="car" depart="59.7" from="466495271#0" to="115505232" departLane="best" fromTaz="snv_nordost" toTaz="snv_syd" />
  <trip id="veh_1909" type="car" depart="61.3" from="32321958" to="313965530#1" departLane="best" fromTaz="wideroe_nordvest" toTaz="snv_nordost" />
  <trip id="veh_3039" type="car" depart="61.5" from="-52975954" to="313965530#1" departLane="best" fromTaz="martin_linges_sydost" toTaz="snv_nordost" />
  <trip id="veh_900" type="car" depart="61.7" from="466495265#0" to="32321957" departLane="best" fromTaz="snv_nordost" toTaz="wideroe_nordvest" />
  <trip id="veh_3413" type="car" depart="61.9" from="-52975954" to="-1014336997" departLane="best" fromTaz="martin_linges_sydost" toTaz="odd_nansens_vest" />
  <trip id="veh_7" type="car" depart="63.9" from="115505254" to="313965530#1" departLane="best" fromTaz="snv_syd" toTaz="snv_nordost" />
  <trip id="veh_1343" type="car" depart="65.7" from="466495265#0" to="52975954" departLane="best" fromTaz="snv_nordost" toTaz="martin_linges_sydost" />
  <trip id="veh_3492" type="car" depart="67.7" from="27184811#3" to="313965530#1" departLane="best" fromTaz="rolfsbukt_syd" toTaz="snv_nordost" />
  <trip id="veh_1590" type="car" depart="67.8" from="32321958" to="115505232" departLane="best" fromTaz="wideroe_nordvest" toTaz="snv_syd" />
  <trip id="veh_901" type="car" depart="70.4" from="466495271#0" to="32321957" departLane="best" fromTaz="snv_nordost" toTaz="wideroe_nordvest" />
  <trip id="veh_3040" type="car" depart="71.4" from="-52975954" to="313965530#1" departLane="best" fromTaz="martin_linges_sydost" toTaz="snv_nordost" />
  <trip id="veh_8" type="car" depart="71.6" from="115505254" to="313965530#1" departLane="best" fromTaz="snv_syd" toTaz="snv_nordost" />
  <trip id="veh_1910" type="car" depart="72.8" from="32321958" to="313965530#1" departLane="best" fromTaz="wideroe_nordvest" toTaz="snv_nordost" />
  <trip id="veh_585" type="car" depart="73.4" from="466495265#0" to="115505232" departLane="best" fromTaz="snv_nordost" toTaz="snv_syd" />
  <trip id="veh_2632" type="car" depart="73.4" from="-27194983" to="313965530#1" departLane="best" fromTaz="snv_east" toTaz="snv_nordost" />
  <trip id="veh_482" type="car" depart="75.0" from="115505254" to="-27184811#3" departLane="best" fromTaz="snv_syd" toTaz="rolfsbukt_syd" />
  <trip id="veh_902" type="car" depart="78.6" from="466495271#0" to="32321957" departLane="best" fromTaz="snv_nordost" toTaz="wideroe_nordvest" />
  <trip id="veh_586" type="car" depart="80.3" from="466495271#0" to="115505232" departLane="best" fromTaz="snv_nordost" toTaz="snv_syd" />
  <trip id="veh_1415" type="car" depart="80.9" from="466495265#0" to="-27184811#3" departLane="best" fromTaz="snv_nordost" toTaz="rolfsbukt_syd" />
  <trip id="veh_1911" type="car" depart="81.5" from="32321958" to="313965530#1" departLane="best" fromTaz="wideroe_nordvest" toTaz="snv_nordost" />
  <trip id="veh_1591" type="car" depart="82.3" from="32321958" to="115505232" departLane="best" fromTaz="wideroe_nordvest" toTaz="snv_syd" />
  <trip id="veh_2633" type="car" depart="83.3" from="-27194983" to="313965530#1" departLane="best" fromTaz="snv_east" toTaz="snv_nordost" />
  <trip id="veh_9" type="car" depart="85.8" from="115505254" to="313965530#1" departLane="best" fromTaz="snv_syd" toTaz="snv_nordost" />
  <trip id="veh_3041" type="car" depart="86.3" from="-52975954" to="313965530#1" departLane="best" fromTaz="martin_linges_sydost" toTaz="snv_nordost" />
  <trip id="veh_2428" type="car" depart="87.9" from="32321958" to="-27184811#3" departLane="best" fromTaz="wideroe_nordvest" toTaz="rolfsbukt_syd" />
  <trip id="veh_903" type="car" depart="88.1" from="466495271#0" to="32321957" departLane="best" fromTaz="snv_nordost" toTaz="wideroe_nordvest" />
  <trip id="veh_350" type="car" depart="88.9" from="115505254" to="32321957" departLane="best" fromTaz="snv_syd" toTaz="wideroe_nordvest" />
  <trip id="veh_1592" type="car" depart="90.7" from="32321958" to="115505232" departLane="best" fromTaz="wideroe_nordvest" toTaz="snv_syd" />
  <trip id="veh_10" type="car" depart="90.8" from="115505254" to="313965530#1" departLane="best" fromTaz="snv_syd" toTaz="snv_nordost" />
  <trip id="veh_1912" type="car" depart="91.2" from="32321958" to="313965530#1" departLane="best" fromTaz="wideroe_nordvest" toTaz="snv_nordost" />
  <trip id="veh_3434" type="car" depart="95.2" from="-52975954" to="-27184811#3" departLane="best" fromTaz="martin_linges_sydost" toTaz="rolfsbukt_syd" />
  <trip id="veh_3042" type="car" depart="96.0" from="-52975954" to="313965530#1" departLane="best" fromTaz="martin_linges_sydost" toTaz="snv_nordost" />
  <trip id="veh_587" type="car" depart="96.1" from="466495265#0" to="115505232" departLane="best" fromTaz="snv_nordost" toTaz="snv_syd" />
  <trip id="veh_904" type="car" depart="96.2" from="466495265#0" to="32321957" departLane="best" fromTaz="snv_nordost" toTaz="wideroe_nordvest" />
  <trip id="veh_1913" type="car" depart="97.3" from="32321958" to="313965530#1" departLane="best" fromTaz="wideroe_nordvest" toTaz="snv_nordost" />
  <trip id="veh_2634" type="car" depart="100.5" from="-27194983" to="313965530#1" departLane="best" fromTaz="snv_east" toTaz="snv_nordost" />
  <trip id="veh_3339" type="car" depart="102.3" from="-52975954" to="32321957" departLane="best" fromTaz="martin_linges_sydost" toTaz="wideroe_nordvest" />
  <trip id="veh_2429" type="car" depart="103.1" from="32321958" to="-27184811#3" departLane="best" fromTaz="wideroe_nordvest" toTaz="rolfsbukt_syd" />
  <trip id="veh_3043" type="car" depart="104.9" from="-52975954" to="313965530#1" departLane="best" fromTaz="martin_linges_sydost" toTaz="snv_nordost" />
  <trip id="veh_1416" type="car" depart="105.4" from="466495265#0" to="-27184811#3" departLane="best" fromTaz="snv_nordost" toTaz="rolfsbukt_syd" />
  <trip id="veh_1593" type="car" depart="105.4" from="32321958" to="115505232" departLane="best" fromTaz="wideroe_nordvest" toTaz="snv_syd" />
  <trip id="veh_11" type="car" depart="105.9" from="115505254" to="313965530#1" departLane="best" fromTaz="snv_syd" toTaz="snv_nordost" />
  <trip id="veh_3493" type="car" depart="106.1" from="27184811#3" to="313965530#1" departLane="best" fromTaz="rolfsbukt_syd" toTaz="snv_nordost" />
  <trip id="veh_588" type="car" depart="106.1" from="466495265#0" to="115505232" departLane="best" fromTaz="snv_nordost" toTaz="snv_syd" />
  <trip id="veh_1914" type="car" depart="106.2" from="32321958" to="313965530#1" departLane="best" fromTaz="wideroe_nordvest" toTaz="snv_nordost" />
  <trip id="veh_2888" type="car" depart="107.7" from="-27194983" to="32321957" departLane="best" fromTaz="snv_east" toTaz="wideroe_nordvest" />
  <trip id="veh_2356" type="car" depart="107.7" from="32321958" to="52975954" departLane="best" fromTaz="wideroe_nordvest" toTaz="martin_linges_sydost" />
  <trip id="veh_905" type="car" depart="108.9" from="466495265#0" to="32321957" departLane="best" fromTaz="snv_nordost" toTaz="wideroe_nordvest" />
  <trip id="veh_1344" type="car" depart="111.0" from="466495271#0" to="52975954" departLane="best" fromTaz="snv_nordost" toTaz="martin_linges_sydost" />
  <trip id="veh_1594" type="car" depart="112.8" from="32321958" to="115505232" departLane="best" fromTaz="wideroe_nordvest" toTaz="snv_syd" />
  <trip id="veh_2964" type="car" depart="113.1" from="-27194983" to="52975954" departLane="best" fromTaz="snv_east" toTaz="martin_linges_sydost" />
  <trip id="veh_1915" type="car" depart="113.9" from="32321958" to="313965530#1" departLane="best" fromTaz="wideroe_nordvest" toTaz="snv_nordost" />
  <trip id="veh_906" type="car" depart="114.2" from="466495265#0" to="32321957" departLane="best" fromTaz="snv_nordost" toTaz="wideroe_nordvest" />
  <trip id="veh_589" type="car" depart="114.4" from="466495271#0" to="115505232" departLane="best" fromTaz="snv_nordost" toTaz="snv_syd" />
  <trip id="veh_459" type="car" depart="114.6" from="115505254" to="52975954" departLane="best" fromTaz="snv_syd" toTaz="martin_linges_sydost" />
  <trip id="veh_2635" type="car" depart="114.8" from="-27194983" to="313965530#1" departLane="best" fromTaz="snv_east" toTaz="snv_nordost" />
  <trip id="veh_12" type="car" depart="115.6" from="115505254" to="313965530#1" departLane="best" fromTaz="snv_syd" toTaz="snv_nordost" />
  <trip id="veh_1296" type="car" depart="119.9" from="466495271#0" to="-1014336997" departLane="best" fromTaz="snv_nordost" toTaz="odd_nansens_vest" />
  <trip id="veh_3044" type="car" depart="120.2" from="-52975954" to="313965530#1" departLane="best" fromTaz="martin_linges_sydost" toTaz="snv_nordost" />
  <trip id="veh_13" type="car" depart="121.9" from="115505254" to="313965530#1" departLane="best" fromTaz="snv_syd" toTaz="snv_nordost" />
  <trip id="veh_907" type="car" depart="124.7" from="466495265#0" to="32321957" departLane="best" fromTaz="snv_nordost" toTaz="wideroe_nordvest" />
  <trip id="veh_1916" type="car" depart="125.0" from="32321958" to="313965530#1" departLane="best" fromTaz="wideroe_nordvest" toTaz="snv_nordost" />
  <trip id="veh_2430" type="car" depart="126.8" from="32321958" to="-27184811#3" departLane="best" fromTaz="wideroe_nordvest" toTaz="rolfsbukt_syd" />
  <trip id="veh_1595" type="car" depart="127.2" from="32321958" to="115505232" departLane="best" fromTaz="wideroe_nordvest" toTaz="snv_syd" />
  <trip id="veh_2636" type="car" depart="127.3" from="-27194983" to="313965530#1" departLane="best" fromTaz="snv_east" toTaz="snv_nordost" />
  <trip id="veh_590" type="car" depart="128.6" from="466495271#0" to="115505232" departLane="best" fromTaz="snv_nordost" toTaz="snv_syd" />
  <trip id="veh_3045" type="car" depart="128.7" from="-52975954" to="313965530#1" departLane="best" fromTaz="martin_linges_sydost" toTaz="snv_nordost" />
  <trip id="veh_1417" type="car" depart="129.7" from="466495265#0" to="-27184811#3" departLane="best" fromTaz="snv_nordost" toTaz="rolfsbukt_syd" />
  <trip id="veh_3573" type="car" depart="129.9" from="27184811#3" to="27194983" departLane="best" fromTaz="rolfsbukt_syd" toTaz="snv_east" />
  <trip id="veh_351" type="car" depart="131.0" from="115505254" to="32321957" departLane="best" fromTaz="snv_syd" toTaz="wideroe_nordvest" />
  <trip id="veh_1320" type="car" depart="131.1" from="466495265#0" to="27194983" departLane="best" fromTaz="snv_nordost" toTaz="snv_east" />
  <trip id="veh_1917" type="car" depart="135.0" from="32321958" to="313965530#1" departLane="best" fromTaz="wideroe_nordvest" toTaz="snv_nordost" />
  <trip id="veh_14" type="car" depart="135.4" from="115505254" to="313965530#1" departLane="best" fromTaz="snv_syd" toTaz="snv_nordost" />
  <trip id="veh_908" type="car" depart="135.6" from="466495271#0" to="32321957" departLane="best" fromTaz="snv_nordost" toTaz="wideroe_nordvest" />
  <trip id="veh_1596" type="car" depart="137.0" from="32321958" to="115505232" departLane="best" fromTaz="wideroe_nordvest" toTaz="snv_syd" />
  <trip id="veh_2637" type="car" depart="139.1" from="-27194983" to="313965530#1" departLane="best" fromTaz="snv_east" toTaz="snv_nordost" />
  <trip id="veh_591" type="car" depart="141.7" from="466495271#0" to="115505232" departLane="best" fromTaz="snv_nordost" toTaz="snv_syd" />
  <trip id="veh_1918" type="car" depart="141.8" from="32321958" to="313965530#1" departLane="best" fromTaz="wideroe_nordvest" toTaz="snv_nordost" />
  <trip id="veh_909" type="car" depart="142.6" from="466495265#0" to="32321957" departLane="best" fromTaz="snv_nordost" toTaz="wideroe_nordvest" />
  <trip id="veh_483" type="car" depart="144.5" from="115505254" to="-27184811#3" departLane="best" fromTaz="snv_syd" toTaz="rolfsbukt_syd" />
  <trip id="veh_1418" type="car" depart="144.6" from="466495271#0" to="-27184811#3" departLane="best" fromTaz="snv_nordost" toTaz="rolfsbukt_syd" />
  <trip id="veh_2431" type="car" depart="145.5" from="32321958" to="-27184811#3" departLane="best" fromTaz="wideroe_nordvest" toTaz="rolfsbukt_syd" />
  <trip id="veh_3046" type="car" depart="145.9" from="-52975954" to="313965530#1" departLane="best" fromTaz="martin_linges_sydost" toTaz="snv_nordost" />
  <trip id="veh_15" type="car" depart="146.2" from="115505254" to="313965530#1" departLane="best" fromTaz="snv_syd" toTaz="snv_nordost" />
  <trip id="veh_2357" type="car" depart="147.3" from="32321958" to="52975954" departLane="best" fromTaz="wideroe_nordvest" toTaz="martin_linges_sydost" />
  <trip id="veh_3340" type="car" depart="147.8" from="-52975954" to="32321957" departLane="best" fromTaz="martin_linges_sydost" toTaz="wideroe_nordvest" />
  <trip id="veh_3435" type="car" depart="148.7" from="-52975954" to="-27184811#3" departLane="best" fromTaz="martin_linges_sydost" toTaz="rolfsbukt_syd" />
  <trip id="veh_2980" type="car" depart="148.9" from="-52975954" to="115505232" departLane="best" fromTaz="martin_linges_sydost" toTaz="snv_syd" />
  <trip id="veh_1597" type="car" depart="149.5" from="32321958" to="115505232" departLane="best" fromTaz="wideroe_nordvest" toTaz="snv_syd" />
  <trip id="veh_592" type="car" depart="150.2" from="466495265#0" to="115505232" departLane="best" fromTaz="snv_nordost" toTaz="snv_syd" />
  <trip id="veh_1919" type="car" depart="150.3" from="32321958" to="313965530#1" departLane="best" fromTaz="wideroe_nordvest" toTaz="snv_nordost" />
  <trip id="veh_910" type="car" depart="153.5" from="466495271#0" to="32321957" departLane="best" fromTaz="snv_nordost" toTaz="wideroe_nordvest" />
  <trip id="veh_2638" type="car" depart="154.5" from="-27194983" to="313965530#1" departLane="best" fromTaz="snv_east" toTaz="snv_nordost" />
  <trip id="veh_2611" type="car" depart="154.9" from="-27194983" to="115505232" departLane="best" fromTaz="snv_east" toTaz="snv_syd" />
  <trip id="veh_3047" type="car" depart="156.7" from="-52975954" to="313965530#1" departLane="best" fromTaz="martin_linges_sydost" toTaz="snv_nordost" />
  <trip id="veh_16" type="car" depart="157.8" from="115505254" to="313965530#1" departLane="best" fromTaz="snv_syd" toTaz="snv_nordost" />
  <trip id="veh_911" type="car" depart="158.5" from="466495265#0" to="32321957" departLane="best" fromTaz="snv_nordost" toTaz="wideroe_nordvest" />
  <trip id="veh_1598" type="car" depart="158.8" from="32321958" to="115505232" departLane="best" fromTaz="wideroe_nordvest" toTaz="snv_syd" />
  <trip id="veh_1920" type="car" depart="159.6" from="32321958" to="313965530#1" departLane="best" fromTaz="wideroe_nordvest" toTaz="snv_nordost" />
  <trip id="veh_1345" type="car" depart="160.9" from="466495265#0" to="52975954" departLane="best" fromTaz="snv_nordost" toTaz="martin_linges_sydost" />
  <trip id="veh_453" type="car" depart="161.1" from="115505254" to="27194983" departLane="best" fromTaz="snv_syd" toTaz="snv_east" />
  <trip id="veh_593" type="car" depart="161.6" from="466495265#0" to="115505232" departLane="best" fromTaz="snv_nordost" toTaz="snv_syd" />
  <trip id="veh_1419" type="car" depart="161.8" from="466495271#0" to="-27184811#3" departLane="best" fromTaz="snv_nordost" toTaz="rolfsbukt_syd" />
  <trip id="veh_17" type="car" depart="164.6" from="115505254" to="313965530#1" departLane="best" fromTaz="snv_syd" toTaz="snv_nordost" />
  <trip id="veh_352" type="car" depart="165.6" from="115505254" to="32321957" departLane="best" fromTaz="snv_syd" toTaz="wideroe_nordvest" />
  <trip id="veh_912" type="car" depart="168.7" from="466495265#0" to="32321957" departLane="best" fromTaz="snv_nordost" toTaz="wideroe_nordvest" />
  <trip id="veh_2639" type="car" depart="168.8" from="-27194983" to="313965530#1" departLane="best" fromTaz="snv_east" toTaz="snv_nordost" />
  <trip id="veh_1921" type="car" depart="169.1" from="32321958" to="313965530#1" departLane="best" fromTaz="wideroe_nordvest" toTaz="snv_nordost" />
  <trip id="veh_3048" type="car" depart="169.2" from="-52975954" to="313965530#1" departLane="best" fromTaz="martin_linges_sydost" toTaz="snv_nordost" />
  <trip id="veh_2432" type="car" depart="170.4" from="32321958" to="-27184811#3" departLane="best" fromTaz="wideroe_nordvest" toTaz="rolfsbukt_syd" />
  <trip id="veh_3494" type="car" depart="170.9" from="27184811#3" to="313965530#1" departLane="best" fromTaz="rolfsbukt_syd" toTaz="snv_nordost" />
  <trip id="veh_1599" type="car" depart="172.3" from="32321958" to="115505232" departLane="best" fromTaz="wideroe_nordvest" toTaz="snv_syd" />
  <trip id="veh_18" type="car" depart="175.6" from="115505254" to="313965530#1" departLane="best" fromTaz="snv_syd" toTaz="snv_nordost" />
  <trip id="veh_2640" type="car" depart="176.8" from="-27194983" to="313965530#1" departLane="best" fromTaz="snv_east" toTaz="snv_nordost" />
  <trip id="veh_594" type="car" depart="177.0" from="466495271#0" to="115505232" departLane="best" fromTaz="snv_nordost" toTaz="snv_syd" />
  <trip id="veh_1922" type="car" depart="178.9" from="32321958" to="313965530#1" departLane="best" fromTaz="wideroe_nordvest" toTaz="snv_nordost" />
  <trip id="veh_3049" type="car" depart="179.3" from="-52975954" to="313965530#1" departLane="best" fromTaz="martin_linges_sydost" toTaz="snv_nordost" />