<?xml version='1.0' encoding='utf-8'?>
<routes>
  <vType id="event_car" vClass="passenger" length="4.5" maxSpeed="50.0" accel="2.6" decel="4.5" sigma="0.5" color="0.2,0.2,0.8" />
  <trip id="event_2354" type="event_car" depart="1813.8" from="466495265#0" to="27194983" departLane="best" fromTaz="snv_nordost" toTaz="snv_east" />
  <trip id="event_462" type="event_car" depart="1815.7" from="466495265#0" to="27194983" departLane="best" fromTaz="snv_nordost" toTaz="snv_east" />
  <trip id="event_2763" type="event_car" depart="1816.2" from="466495265#0" to="27194983" departLane="best" fromTaz="snv_nordost" toTaz="snv_east" />
  <trip id="event_3290" type="event_car" depart="1821.5" from="466495265#0" to="27194983" departLane="best" fromTaz="snv_nordost" toTaz="snv_east" />
  <trip id="event_33" type="event_car" depart="1831.5" from="466495265#0" to="27194983" departLane="best" fromTaz="snv_nordost" toTaz="snv_east" />
  <trip id="event_2234" type="event_car" depart="1835.3" from="466495271#0" to="27194983" departLane="best" fromTaz="snv_nordost" toTaz="snv_east" />
  <trip id="event_637" type="event_car" depart="1837.2" from="466495271#0" to="27194983" departLane="best" fromTaz="snv_nordost" toTaz="snv_east" />
  <trip id="event_3538" type="event_car" depart="1840.7" from="466495265#0" to="27194983" departLane="best" fromTaz="snv_nordost" toTaz="snv_east" />
  <trip id="event_13" type="event_car" depart="1850.4" from="466495271#0" to="27194983" departLane="best" fromTaz="snv_nordost" toTaz="snv_east" />
  <trip id="event_2999" type="event_car" depart="1855.6" from="466495271#0" to="27194983" departLane="best" fromTaz="snv_nordost" toTaz="snv_east" />
  <trip id="event_1444" type="event_car" depart="1873.2" from="466495265#0" to="27194983" departLane="best" fromTaz="snv_nordost" toTaz="snv_east" />
  <trip id="event_3413" type="event_car" depart="1877.7" from="466495271#0" to="27194983" departLane="best" fromTaz="snv_nordost" toTaz="snv_east" />
  <trip id="event_531" type="event_car" depart="1879.2" from="466495265#0" to="27194983" departLane="best" fromTaz="snv_nordost" toTaz="snv_east" />
  <trip id="event_2489" type="event_car" depart="1882.5" from="466495271#0" to="27194983" departLane="best" fromTaz="snv_nordost" toTaz="snv_east" />
  <trip id="event_3126" type="event_car" depart="1883.0" from="466495271#0" to="27194983" departLane="best" fromTaz="snv_nordost" toTaz="snv_east" />
  <trip id="event_855" type="event_car" depart="1883.7" from="466495271#0" to="27194983" departLane="best" fromTaz="snv_nordost" toTaz="snv_east" />
  <trip id="event_2889" type="event_car" depart="1889.0" from="466495271#0" to="27194983" departLane="best" fromTaz="snv_nordost" toTaz="snv_east" />
  <trip id="event_3553" type="event_car" depart="1889.3" from="466495271#0" to="27194983" departLane="best" fromTaz="snv_nordost" toTaz="snv_east" />
  <trip id="event_824" type="event_car" depart="1892.8" from="466495265#0" to="27194983" departLane="best" fromTaz="snv_nordost" toTaz="snv_east" />
  <trip id="event_974" type="event_car" depart="1895.3" from="466495271#0" to="27194983" departLane="best" fromTaz="snv_nordost" toTaz="snv_east" />
  <trip id="event_63" type="event_car" depart="1897.5" from="466495265#0" to="27194983" departLane="best" fromTaz="snv_nordost" toTaz="snv_east" />
  <trip id="event_490" type="event_car" depart="1899.8" from="466495265#0" to="27194983" departLane="best" fromTaz="snv_nordost" toTaz="snv_east" />
  <trip id="event_1956" type="event_car" depart="1902.9" from="466495271#0" to="27194983" departLane="best" fromTaz="snv_nordost" toTaz="snv_east" />
  <trip id="event_860" type="event_car" depart="1903.5" from="466495271#0" to="27194983" departLane="best" fromTaz="snv_nordost" toTaz="snv_east" />
  <trip id="event_80" type="event_car" depart="1903.7" from="466495271#0" to="27194983" departLane="best" fromTaz="snv_nordost" toTaz="snv_east" />
  <trip id="event_2225" type="event_car" depart="1910.8" from="466495271#0" to="27194983" departLane="best" fromTaz="snv_nordost" toTaz="snv_east" />
  <trip id="event_3285" type="event_car" depart="1912.3" from="466495271#0" to="27194983" departLane="best" fromTaz="snv_nordost" toTaz="snv_east" />
  <trip id="event_97" type="event_car" depart="1913.3" from="466495271#0" to="27194983" departLane="best" fromTaz="snv_nordost" toTaz="snv_east" />
  <trip id="event_3513" type="event_car" depart="1917.7" from="466495271#0" to="27194983" departLane="best" fromTaz="snv_nordost" toTaz="snv_east" />
  <trip id="event_1951" type="event_car" depart="1919.5" from="466495265#0" to="27194983" departLane="best" fromTaz="snv_nordost" toTaz="snv_east" />
  <trip id="event_1137" type="event_car" depart="1923.1" from="466495271#0" to="27194983" departLane="best" fromTaz="snv_nordost" toTaz="snv_east" />
  <trip id="event_3329" type="event_car" depart="1924.2" from="466495271#0" to="27194983" departLane="best" fromTaz="snv_nordost" toTaz="snv_east" />
  <trip id="event_2262" type="event_car" depart="1927.6" from="466495271#0" to="27194983" departLane="best" fromTaz="snv_nordost" toTaz="snv_east" />
  <trip id="event_1740" type="event_car" depart="1928.1" from="466495265#0" to="27194983" departLane="best" fromTaz="snv_nordost" toTaz="snv_east" />
  <trip id="event_2256" type="event_car" depart="1933.4" from="466495265#0" to="27194983" departLane="best" fromTaz="snv_nordost" toTaz="snv_east" />
  <trip id="event_520" type="event_car" depart="1935.4" from="466495271#0" to="27194983" departLane="best" fromTaz="snv_nordost" toTaz="snv_east" />
  <trip id="event_134" type="event_car" depart="1936.3" from="466495271#0" to="27194983" departLane="best" fromTaz="snv_nordost" toTaz="snv_east" />
  <trip id="event_192" type="event_car" depart="1937.1" from="466495265#0" to="27194983" departLane="best" fromTaz="snv_nordost" toTaz="snv_east" />
  <trip id="event_2684" type="event_car" depart="1937.3" from="466495265#0" to="27194983" departLane="best" fromTaz="snv_nordost" toTaz="snv_east" />
  <trip id="event_1713" type="event_car" depart="1940.9" from="466495265#0" to="27194983" departLane="best" fromTaz="snv_nordost" toTaz="snv_east" />
  <trip id="event_1619" type="event_car" depart="1944.8" from="466495265#0" to="27194983" departLane="best" fromTaz="snv_nordost" toTaz="snv_east" />
  <trip id="event_2238" type="event_car" depart="1944.8" from="466495271#0" to="27194983" departLane="best" fromTaz="snv_nordost" toTaz="snv_east" />
  <trip id="event_403" type="event_car" depart="1945.1" from="466495265#0" to="27194983" departLane="best" fromTaz="snv_nordost" toTaz="snv_east" />
  <trip id="event_1199" type="event_car" depart="1945.3" from="466495265#0" to="27194983" departLane="best" fromTaz="snv_nordost" toTaz="snv_east" />
  <trip id="event_1901" type="event_car" depart="1945.4" from="466495265#0" to="27194983" departLane="best" fromTaz="snv_nordost" toTaz="snv_east" />
  <trip id="event_2546" type="event_car" depart="1949.4" from="466495265#0" to="27194983" departLane="best" fromTaz="snv_nordost" toTaz="snv_east" />
  <trip id="event_5627" type="event_car" depart="1951.3" from="-27194983" to="313965530#1" departLane="best" fromTaz="snv_east" toTaz="snv_nordost" />
  <trip id="event_2440" type="event_car" depart="1954.0" from="466495271#0" to="27194983" departLane="best" fromTaz="snv_nordost" toTaz="snv_east" />
  <trip id="event_3352" type="event_car" depart="1955.3" from="466495265#0" to="27194983" departLane="best" fromTaz="snv_nordost" toTaz="snv_east" />
  <trip id="event_1407" type="event_car" depart="1956.0" from="466495271#0" to="27194983" departLane="best" fromTaz="snv_nordost" toTaz="snv_east" />
  <trip id="event_3508" type="event_car" depart="1957.7" from="466495265#0" to="27194983" departLane="best" fromTaz="snv_nordost" toTaz="snv_east" />
  <trip id="event_418" type="event_car" depart="1957.8" from="466495265#0" to="27194983" departLane="best" fromTaz="snv_nordost" toTaz="snv_east" />
  <trip id="event_2146" type="event_car" depart="1958.5" from="466495271#0" to="27194983" departLane="best" fromTaz="snv_nordost" toTaz="snv_east" />
  <trip id="event_3197" type="event_car" depart="1961.7" from="466495265#0" to="27194983" departLane="best" fromTaz="snv_nordost" toTaz="snv_east" />
  <trip id="event_2227" type="event_car" depart="1962.6" from="466495271#0" to="27194983" departLane="best" fromTaz="snv_nordost" toTaz="snv_east" />
  <trip id="event_2589" type="event_car" depart="1963.4" from="466495271#0" to="27194983" departLane="best" fromTaz="snv_nordost" toTaz="snv_east" />
  <trip id="event_84" type="event_car" depart="1963.8" from="466495265#0" to="27194983" departLane="best" fromTaz="snv_nordost" toTaz="snv_east" />
  <trip id="event_408" type="event_car" depart="1968.0" from="466495271#0" to="27194983" departLane="best" fromTaz="snv_nordost" toTaz="snv_east" />
  <trip id="event_3212" type="event_car" depart="1969.1" from="466495265#0" to="27194983" departLane="best" fromTaz="snv_nordost" toTaz="snv_east" />
  <trip id="event_3206" type="event_car" depart="1971.4" from="466495265#0" to="27194983" departLane="best" fromTaz="snv_nordost" toTaz="snv_east" />
  <trip id="event_743" type="event_car" depart="1971.6" from="466495271#0" to="27194983" departLane="best" fromTaz="snv_nordost" toTaz="snv_east" />
  <trip id="event_4460" type="event_car" depart="1972.3" from="-27194983" to="313965530#1" departLane="best" fromTaz="snv_east" toTaz="snv_nordost" />
  <trip id="event_3584" type="event_car" depart="1974.9" from="466495265#0" to="27194983" departLane="best" fromTaz="snv_nordost" toTaz="snv_east" />
  <trip id="event_4545" type="event_car" depart="1975.3" from="-27194983" to="313965530#1" departLane="best" fromTaz="snv_east" toTaz="snv_nordost" />
  <trip id="event_2638" type="event_car" depart="1976.4" from="466495271#0" to="27194983" departLane="best" fromTaz="snv_nordost" toTaz="snv_east" />
  <trip id="event_1528" type="event_car" depart="1977.3" from="466495265#0" to="27194983" departLane="best" fromTaz="snv_nordost" toTaz="snv_east" />
  <trip id="event_1739" type="event_car" depart="1977.6" from="466495265#0" to="27194983" departLane="best" fromTaz="snv_nordost" toTaz="snv_east" />
  <trip id="event_1842" type="event_car" depart="1980.1" from="466495271#0" to="27194983" departLane="best" fromTaz="snv_nordost" toTaz="snv_east" />
  <trip id="event_2670" type="event_car" depart="1983.5" from="466495271#0" to="27194983" departLane="best" fromTaz="snv_nordost" toTaz="snv_east" />
  <trip id="event_38" type="event_car" depart="1990.0" from="466495265#0" to="27194983" departLane="best" fromTaz="snv_nordost" toTaz="snv_east" />
  <trip id="event_3550" type="event_car" depart="1990.4" from="466495271#0" to="27194983" departLane="best" fromTaz="snv_nordost" toTaz="snv_east" />
  <trip id="event_907" type="event_car" depart="1991.8" from="466495265#0" to="27194983" departLane="best" fromTaz="snv_nordost" toTaz="snv_east" />
  <trip id="event_1203" type="event_car" depart="1994.1" from="466495265#0" to="27194983" departLane="best" fromTaz="snv_nordost" toTaz="snv_east" />
  <trip id="event_2018" type="event_car" depart="1994.2" from="466495271#0" to="27194983" departLane="best" fromTaz="snv_nordost" toTaz="snv_east" />
  <trip id="event_789" type="event_car" depart="1995.5" from="466495271#0" to="27194983" departLane="best" fromTaz="snv_nordost" toTaz="snv_east" />
  <trip id="event_1224" type="event_car" depart="1997.5" from="466495271#0" to="27194983" departLane="best" fromTaz="snv_nordost" toTaz="snv_east" />
  <trip id="event_693" type="event_car" depart="2000.1" from="466495265#0" to="27194983" departLane="best" fromTaz="snv_nordost" toTaz="snv_east" />
  <trip id="event_452" type="event_car" depart="2002.9" from="466495265#0" to="27194983" departLane="best" fromTaz="snv_nordost" toTaz="snv_east" />
  <trip id="event_1873" type="event_car" depart="2004.7" from="466495265#0" to="27194983" departLane="best" fromTaz="snv_nordost" toTaz="snv_east" />
  <trip id="event_618" type="event_car" depart="2005.7" from="466495271#0" to="27194983" departLane="best" fromTaz="snv_nordost" toTaz="snv_east" />
  <trip id="event_2323" type="event_car" depart="2006.6" from="466495271#0" to="27194983" departLane="best" fromTaz="snv_nordost" toTaz="snv_east" />
  <trip id="event_2173" type="event_car" depart="2011.3" from="466495265#0" to="27194983" departLane="best" fromTaz="snv_nordost" toTaz="snv_east" />
  <trip id="event_298" type="event_car" depart="2012.0" from="466495265#0" to="27194983" departLane="best" fromTaz="snv_nordost" toTaz="snv_east" />
  <trip id="event_3377" type="event_car" depart="2013.2" from="466495271#0" to="27194983" departLane="best" fromTaz="snv_nordost" toTaz="snv_east" />
  <trip id="event_800" type="event_car" depart="2013.2" from="466495271#0" to="27194983" departLane="best" fromTaz="snv_nordost" toTaz="snv_east" />
  <trip id="event_49" type="event_car" depart="2014.1" from="466495271#0" to="27194983" departLane="best" fromTaz="snv_nordost" toTaz="snv_east" />
  <trip id="event_2599" type="event_car" depart="2017.5" from="466495271#0" to="27194983" departLane="best" fromTaz="snv_nordost" toTaz="snv_east" />
  <trip id="event_2338" type="event_car" depart="2018.1" from="466495265#0" to="27194983" departLane="best" fromTaz="snv_nordost" toTaz="snv_east" />
  <trip id="event_2644" type="event_car" depart="2018.2" from="466495265#0" to="27194983" departLane="best" fromTaz="snv_nordost" toTaz="snv_east" />
  <trip id="event_682" type="event_car" depart="2018.6" from="466495265#0" to="27194983" departLane="best" fromTaz="snv_nordost" toTaz="snv_east" />
  <trip id="event_3263" type="event_car" depart="2018.7" from="466495271#0" to="27194983" departLane="best" fromTaz="snv_nordost" toTaz="snv_east" />
  <trip id="event_1710" type="event_car" depart="2018.8" from="466495271#0" to="27194983" departLane="best" fromTaz="snv_nordost" toTaz="snv_east" />
  <trip id="event_2626" type="event_car" depart="2018.9" from="466495271#0" to="27194983" departLane="best" fromTaz="snv_nordost" toTaz="snv_east" />
  <trip id="event_837" type="event_car" depart="2022.2" from="466495265#0" to="27194983" departLane="best" fromTaz="snv_nordost" toTaz="snv_east" />
  <trip id="event_2982" type="event_car" depart="2024.1" from="466495265#0" to="27194983" departLane="best" fromTaz="snv_nordost" toTaz="snv_east" />
  <trip id="event_640" type="event_car" depart="2024.1" from="466495265#0" to="27194983" departLane="best" fromTaz="snv_nordost" toTaz="snv_east" />
  <trip id="event_1705" type="event_car" depart="2024.8" from="466495265#0" to="27194983" departLane="best" fromTaz="snv_nordost" toTaz="snv_east" />
  <trip id="event_1484" type="event_car" depart="2031.5" from="466495271#0" to="27194983" departLane="best" fromTaz="snv_nordost" toTaz="snv_east" />
  <trip id="event_5826" type="event_car" depart="2032.2" from="-27194983" to="313965530#1" departLane="best" fromTaz="snv_east" toTaz="snv_nordost" />
  <trip id="event_504" type="event_car" depart="2033.5" from="466495271#0" to="27194983" departLane="best" fromTaz="snv_nordost" toTaz="snv_east" />
  <trip id="event_1029" type="event_car" depart="2036.9" from="466495265#0" to="27194983" departLane="best" fromTaz="snv_nordost" toTaz="snv_east" />
  <trip id="event_2876" type="event_car" depart="2037.7" from="466495265#0" to="27194983" departLane="best" fromTaz="snv_nordost" toTaz="snv_east" />
  <trip id="event_2015" type="event_car" depart="2039.3" from="466495265#0" to="27194983" departLane="best" fromTaz="snv_nordost" toTaz="snv_east" />
  <trip id="event_1238" type="event_car" depart="2039.8" from="466495265#0" to="27194983" departLane="best" fromTaz="snv_nordost" toTaz="snv_east" />
  <trip id="event_2197" type="event_car" depart="2040.5" from="466495271#0" to="27194983" departLane="best" fromTaz="snv_nordost" toTaz="snv_east" />
  <trip id="event_881" type="event_car" depart="2040.8" from="466495271#0" to="27194983" departLane="best" fromTaz="snv_nordost" toTaz="snv_east" />
  <trip id="event_2236" type="event_car" depart="2040.8" from="466495265#0" to="27194983" departLane="best" fromTaz="snv_nordost" toTaz="snv_east" />
  <trip id="event_2910" type="event_car" depart="2042.3" from="466495265#0" to="27194983" departLane="best" fromTaz="snv_nordost" toTaz="snv_east" />
  <trip id="event_628" type="event_car" depart="2043.3" from="466495271#0" to="27194983" departLane="best" fromTaz="snv_nordost" toTaz="snv_east" />
  <trip id="event_720" type="event_car" depart="2049.2" from="466495265#0" to="27194983" departLane="best" fromTaz="snv_nordost" toTaz="snv_east" />
  <trip id="event_3161" type="event_car" depart="2049.7" from="466495265#0" to="27194983" departLane="best" fromTaz="snv_nordost" toTaz="snv_east" />
  <trip id="event_3289" type="event_car" depart="2053.4" from="466495265#0" to="27194983" departLane="best" fromTaz="snv_nordost" toTaz="snv_east" />
  <trip id="event_241" type="event_car" depart="2055.6" from="466495271#0" to="27194983" departLane="best" fromTaz="snv_nordost" toTaz="snv_east" />
  <trip id="event_3038" type="event_car" depart="2057.5" from="466495265#0" to="27194983" departLane="best" fromTaz="snv_nordost" toTaz="snv_east" />
  <trip id="event_2609" type="event_car" depart="2057.6" from="466495271#0" to="27194983" departLane="best" fromTaz="snv_nordost" toTaz="snv_east" />
  <trip id="event_3544" type="event_car" depart="2057.8" from="466495271#0" to="27194983" departLane="best" fromTaz="snv_nordost" toTaz="snv_east" />
  <trip id="event_2879" type="event_car" depart="2059.6" from="466495271#0" to="27194983" departLane="best" fromTaz="snv_nordost" toTaz="snv_east" />
  <trip id="event_2098" type="event_car" depart="2061.8" from="466495265#0" to="27194983" departLane="best" fromTaz="snv_nordost" toTaz="snv_east" />
  <trip id="event_3539" type="event_car" depart="2062.5" from="466495271#0" to="27194983" departLane="best" fromTaz="snv_nordost" toTaz="snv_east" />
  <trip id="event_1928" type="event_car" depart="2065.6" from="466495271#0" to="27194983" departLane="best" fromTaz="snv_nordost" toTaz="snv_east" />
  <trip id="event_1689" type="event_car" depart="2066.2" from="466495265#0" to="27194983" departLane="best" fromTaz="snv_nordost" toTaz="snv_east" />
  <trip id="event_726" type="event_car" depart="2066.6" from="466495271#0" to="27194983" departLane="best" fromTaz="snv_nordost" toTaz="snv_east" />
  <trip id="event_2809" type="event_car" depart="2067.3" from="466495265#0" to="27194983" departLane="best" fromTaz="snv_nordost" toTaz="snv_east" />
  <trip id="event_465" type="event_car" depart="2067.9" from="466495271#0" to="27194983" departLane="best" fromTaz="snv_nordost" toTaz="snv_east" />
  <trip id="event_310" type="event_car" depart="2068.0" from="466495265#0" to="27194983" departLane="best" fromTaz="snv_nordost" toTaz="snv_east" />
  <trip id="event_3576" type="event_car" depart="2068.7" from="466495271#0" to="27194983" departLane="best" fromTaz="snv_nordost" toTaz="snv_east" />
  <trip id="event_1750" type="event_car" depart="2070.3" from="466495265#0" to="27194983" departLane="best" fromTaz="snv_nordost" toTaz="snv_east" />
  <trip id="event_3137" type="event_car" depart="2070.5" from="466495271#0" to="27194983" departLane="best" fromTaz="snv_nordost" toTaz="snv_east" />
  <trip id="event_3087" type="event_car" depart="2070.8" from="466495265#0" to="27194983" departLane="best" fromTaz="snv_nordost" toTaz="snv_east" />
  <trip id="event_3615" type="event_car" depart="2074.7" from="466495271#0" to="27194983" departLane="best" fromTaz="snv_nordost" toTaz="snv_east" />
  <trip id="event_3230" type="event_car" depart="2075.5" from="466495265#0" to="27194983" departLane="best" fromTaz="snv_nordost" toTaz="snv_east" />
  <trip id="event_3646" type="event_car" depart="2075.6" from="466495265#0" to="27194983" departLane="best" fromTaz="snv_nordost" toTaz="snv_east" />
  <trip id="event_2685" type="event_car" depart="2075.8" from="466495265#0" to="27194983" departLane="best" fromTaz="snv_nordost" toTaz="snv_east" />
  <trip id="event_1969" type="event_car" depart="2076.5" from="466495271#0" to="27194983" departLane="best" fromTaz="snv_nordost" toTaz="snv_east" />
  <trip id="event_1411" type="event_car" depart="2076.9" from="466495265#0" to="27194983" departLane="best" fromTaz="snv_nordost" toTaz="snv_east" />
  <trip id="event_1906" type="event_car" depart="2077.1" from="466495271#0" to="27194983" departLane="best" fromTaz="snv_nordost" toTaz="snv_east" />
  <trip id="event_2497" type="event_car" depart="2077.4" from="466495265#0" to="27194983" departLane="best" fromTaz="snv_nordost" toTaz="snv_east" />
  <trip id="event_1783" type="event_car" depart="2078.6" from="466495271#0" to="27194983" departLane="best" fromTaz="snv_nordost" toTaz="snv_east" />
  <trip id="event_1167" type="event_car" depart="2082.6" from="466495271#0" to="27194983" departLane="best" fromTaz="snv_nordost" toTaz="snv_east" />
  <trip id="event_2148" type="event_car" depart="2083.0" from="466495265#0" to="27194983" departLane="best" fromTaz="snv_nordost" toTaz="snv_east" />
  <trip id="event_1310" type="event_car" depart="2083.0" from="466495265#0" to="27194983" departLane="best" fromTaz="snv_nordost" toTaz="snv_east" />
  <trip id="event_1145" type="event_car" depart="2083.4" from="466495271#0" to="27194983" departLane="best" fromTaz="snv_nordost" toTaz="snv_east" />
  <trip id="event_3960" type="event_car" depart="2084.0" from="-27194983" to="313965530#1" departLane="best" fromTaz="snv_east" toTaz="snv_nordost" />
  <trip id="event_3767" type="event_car" depart="2084.5" from="-27194983" to="313965530#1" departLane="best" fromTaz="snv_east" toTaz="snv_nordost" />
  <trip id="event_3420" type="event_car" depart="2086.3" from="466495265#0" to="27194983" departLane="best" fromTaz="snv_nordost" toTaz="snv_east" />
  <trip id="event_1100" type="event_car" depart="2086.6" from="466495271#0" to="27194983" departLane="best" fromTaz="snv_nordost" toTaz="snv_east" />
  <trip id="event_109" type="event_car" depart="2086.8" from="466495271#0" to="27194983" departLane="best" fromTaz="snv_nordost" toTaz="snv_east" />
  <trip id="event_1645" type="event_car" depart="2087.4" from="466495265#0" to="27194983" departLane="best" fromTaz="snv_nordost" toTaz="snv_east" />
  <trip id="event_6047" type="event_car" depart="2087.9" from="-27194983" to="313965530#1" departLane="best" fromTaz="snv_east" toTaz="snv_nordost" />
  <trip id="event_2838" type="event_car" depart="2088.7" from="466495271#0" to="27194983" departLane="best" fromTaz="snv_nordost" toTaz="snv_east" />
  <trip id="event_2149" type="event_car" depart="2089.1" from="466495265#0" to="27194983" departLane="best" fromTaz="snv_nordost" toTaz="snv_east" />
  <trip id="event_1859" type="event_car" depart="2090.0" from="466495265#0" to="27194983" departLane="best" fromTaz="snv_nordost" toTaz="snv_east" />
  <trip id="event_5073" type="event_car" depart="2090.2" from="-27194983" to="313965530#1" departLane="best" fromTaz="snv_east" toTaz="snv_nordost" />
  <trip id="event_3407" type="event_car" depart="2090.4" from="466495265#0" to="27194983" departLane="best" fromTaz="snv_nordost" toTaz="snv_east" />
  <trip id="event_3159" type="event_car" depart="2091.3" from="466495271#0" to="27194983" departLane="best" fromTaz="snv_nordost" toTaz="snv_east" />
  <trip id="event_2364" type="event_car" depart="2091.3" from="466495265#0" to="27194983" departLane="best" fromTaz="snv_nordost" toTaz="snv_east" />
  <trip id="event_3597" type="event_car" depart="2092.9" from="466495265#0" to="27194983" departLane="best" fromTaz="snv_nordost" toTaz="snv_east" />
  <trip id="event_2983" type="event_car" depart="2093.5" from="466495265#0" to="27194983" departLane="best" fromTaz="snv_nordost" toTaz="snv_east" />
  <trip id="event_2492" type="event_car" depart="2093.5" from="466495265#0" to="27194983" departLane="best" fromTaz="snv_nordost" toTaz="snv_east" />
  <trip id="event_451" type="event_car" depart="2094.4" from="466495271#0" to="27194983" departLane="best" fromTaz="snv_nordost" toTaz="snv_east" />
  <trip id="event_4134" type="event_car" depart="2097.7" from="-27194983" to="313965530#1" departLane="best" fromTaz="snv_east" toTaz="snv_nordost" />
  <trip id="event_5415" type="event_car" depart="2101.2" from="-27194983" to="313965530#1" departLane="best" fromTaz="snv_east" toTaz="snv_nordost" />
  <trip id="event_4172" type="event_car" depart="2102.8" from="-27194983" to="313965530#1" departLane="best" fromTaz="snv_east" toTaz="snv_nordost" />
  <trip id="event_2648" type="event_car" depart="2103.0" from="466495271#0" to="27194983" departLane="best" fromTaz="snv_nordost" toTaz="snv_east" />
  <trip id="event_3518" type="event_car" depart="2103.4" from="466495271#0" to="27194983" departLane="best" fromTaz="snv_nordost" toTaz="snv_east" />
  <trip id="event_3385" type="event_car" depart="2103.9" from="466495271#0" to="27194983" departLane="best" fromTaz="snv_nordost" toTaz="snv_east" />
  <trip id="event_3515" type="event_car" depart="2107.1" from="466495265#0" to="27194983" departLane="best" fromTaz="snv_nordost" toTaz="snv_east" />
  <trip id="event_3961" type="event_car" depart="2108.3" from="-27194983" to="313965530#1" departLane="best" fromTaz="snv_east" toTaz="snv_nordost" />
  <trip id="event_573" type="event_car" depart="2110.8" from="466495271#0" to="27194983" departLane="best" fromTaz="snv_nordost" toTaz="snv_east" />
  <trip id="event_2665" type="event_car" depart="2111.2" from="466495271#0" to="27194983" departLane="best" fromTaz="snv_nordost" toTaz="snv_east" />
  <trip id="event_3482" type="event_car" depart="2111.7" from="466495265#0" to="27194983" departLane="best" fromTaz="snv_nordost" toTaz="snv_east" />
  <trip id="event_3015" type="event_car" depart="2112.6" from="466495265#0" to="27194983" departLane="best" fromTaz="snv_nordost" toTaz="snv_east" />
  <trip id="event_3182" type="event_car" depart="2113.3" from="466495271#0" to="27194983" departLane="best" fromTaz="snv_nordost" toTaz="snv_east" />
  <trip id="event_2584" type="event_car" depart="2113.9" from="466495265#0" to="27194983" departLane="best" fromTaz="snv_nordost" toTaz="snv_east" />
  <trip id="event_5117" type="event_car" depart="2113.9" from="-27194983" to="313965530#1" departLane="best" fromTaz="snv_east" toTaz="snv_nordost" />
  <trip id="event_2981" type="event_car" depart="2115.2" from="466495265#0" to="27194983" departLane="best" fromTaz="snv_nordost" toTaz="snv_east" />
  <trip id="event_4591" type="event_car" depart="2116.8" from="-27194983" to="313965530#1" departLane="best" fromTaz="snv_east" toTaz="snv_nordost" />
  <trip id="event_1398" type="event_car" depart="2117.3" from="466495271#0" to="27194983" departLane="best" fromTaz="snv_nordost" toTaz="snv_east" />
  <trip id="event_3460" type="event_car" depart="2118.6" from="466495271#0" to="27194983" departLane="best" fromTaz="snv_nordost" toTaz="snv_east" />
  <trip id="event_1673" type="event_car" depart="2120.5" from="466495265#0" to="27194983" departLane="best" fromTaz="snv_nordost" toTaz="snv_east" />
  <trip id="event_898" type="event_car" depart="2123.6" from="466495271#0" to="27194983" departLane="best" fromTaz="snv_nordost" toTaz="snv_east" />
  <trip id="event_2699" type="event_car" depart="2123.9" from="466495265#0" to="27194983" departLane="best" fromTaz="snv_nordost" toTaz="snv_east" />
  <trip id="event_2297" type="event_car" depart="2124.0" from="466495271#0" to="27194983" departLane="best" fromTaz="snv_nordost" toTaz="snv_east" />
  <trip id="event_2630" type="event_car" depart="2124.2" from="466495265#0" to="27194983" departLane="best" fromTaz="snv_nordost" toTaz="snv_east" />
  <trip id="event_2068" type="event_car" depart="2124.4" from="466495271#0" to="27194983" departLane="best" fromTaz="snv_nordost" toTaz="snv_east" />
  <trip id="event_1419" type="event_car" depart="2125.0" from="466495265#0" to="27194983" departLane="best" fromTaz="snv_nordost" toTaz="snv_east" />
  <trip id="event_5540" type="event_car" depart="2125.4" from="-27194983" to="313965530#1" departLane="best" fromTaz="snv_east" toTaz="snv_nordost" />
  <trip id="event_60" type="event_car" depart="2125.6" from="466495265#0" to="27194983" departLane="best" fromTaz="snv_nordost" toTaz="snv_east" />
  <trip id="event_4846" type="event_car" depart="2126.1" from="-27194983" to="313965530#1" departLane="best" fromTaz="snv_east" toTaz="snv_nordost" />
  <trip id="event_2110" type="event_car" depart="2126.3" from="466495271#0" to="27194983" departLane="best" fromTaz="snv_nordost" toTaz="snv_east" />
  <trip id="event_94" type="event_car" depart="2129.0" from="466495265#0" to="27194983" departLane="best" fromTaz="snv_nordost" toTaz="snv_east" />
  <trip id="event_2207" type="event_car" depart="2129.2" from="466495271#0" to="27194983" departLane="best" fromTaz="snv_nordost" toTaz="snv_east" />
  <trip id="event_5032" type="event_car" depart="2130.1" from="-27194983" to="313965530#1" departLane="best" fromTaz="snv_east" toTaz="snv_nordost" />
  <trip id="event_2298" type="event_car" depart="2130.5" from="466495271#0" to="27194983" departLane="best" fromTaz="snv_nordost" toTaz="snv_east" />
  <trip id="event_2026" type="event_car" depart="2130.6" from="466495271#0" to="27194983" departLane="best" fromTaz="snv_nordost" toTaz="snv_east" />
  <trip id="event_1018" type="event_car" depart="2131.2" from="466495271#0" to="27194983" departLane="best" fromTaz="snv_nordost" toTaz="snv_east" />
  <trip id="event_4181" type="event_car" depart="2131.8" from="-27194983" to="313965530#1" departLane="best" fromTaz="snv_east" toTaz="snv_nordost" />
  <trip id="event_928" type="event_car" depart="2132.3" from="466495265#0" to="27194983" departLane="best" fromTaz="snv_nordost" toTaz="snv_east" />
  <trip id="event_5807" type="event_car" depart="2132.3" from="-27194983" to="313965530#1" departLane="best" fromTaz="snv_east" toTaz="snv_nordost" />