<?xml version='1.0' encoding='utf-8'?>
<routes>
  <vType id="car" vClass="passenger" length="4.5" maxSpeed="50.0" accel="2.6" decel="4.5" sigma="0.5" jmTimegapMinor="1.5" />
  <vType id="emergency" vClass="emergency" length="6.5" maxSpeed="38.89" accel="3.0" decel="5.0" sigma="0.0" speedFactor="1.0" jmDriveAfterRedTime="3" jmIgnoreKeepClearTime="3" color="1,0,0" />
  <trip id="veh_1" type="car" depart="0.0" from="115505254" to="113815194" departLane="best" fromTaz="snv_syd" toTaz="e18_vest" />
  <trip id="veh_198" type="car" depart="0.0" from="115505254" to="362382740" departLane="best" fromTaz="snv_syd" toTaz="e18_ost" />
  <trip id="veh_370" type="car" depart="0.0" from="115505254" to="13797030" departLane="best" fromTaz="snv_syd" toTaz="ring3_nord" />
  <trip id="veh_444" type="car" depart="0.0" from="115505254" to="313965530#1" departLane="best" fromTaz="snv_syd" toTaz="snv_nordost" />
  <trip id="veh_659" type="car" depart="0.0" from="115505254" to="52975954" departLane="best" fromTaz="snv_syd" toTaz="martin_linges_sydost" />
  <trip id="veh_796" type="car" depart="0.0" from="115505254" to="-27184811#3" departLane="best" fromTaz="snv_syd" toTaz="rolfsbukt_syd" />
  <trip id="veh_814" type="car" depart="0.0" from="-53141119" to="115505232" departLane="best" fromTaz="bbv_west" toTaz="snv_syd" />
  <trip id="veh_830" type="car" depart="0.0" from="-53141119" to="313965530#1" departLane="best" fromTaz="bbv_west" toTaz="snv_nordost" />
  <trip id="veh_831" type="car" depart="0.0" from="-53141119" to="-1014336997" departLane="best" fromTaz="bbv_west" toTaz="odd_nansens_vest" />
  <trip id="veh_956" type="car" depart="0.0" from="-53141119" to="52975954" departLane="best" fromTaz="bbv_west" toTaz="martin_linges_sydost" />
  <trip id="veh_975" type="car" depart="0.0" from="-53141119" to="-27184811#3" departLane="best" fromTaz="bbv_west" toTaz="rolfsbukt_syd" />
  <trip id="veh_1077" type="car" depart="0.0" from="1071762868" to="53141119" departLane="best" fromTaz="e18_vest" toTaz="bbv_west" />
  <trip id="veh_1078" type="car" depart="0.0" from="1071762868" to="32321957" departLane="best" fromTaz="e18_vest" toTaz="wideroe_nordvest" />
  <trip id="veh_1261" type="car" depart="0.0" from="1071762868" to="-1014336997" departLane="best" fromTaz="e18_vest" toTaz="odd_nansens_vest" />
  <trip id="veh_1278" type="car" depart="0.0" from="1071762868" to="27194983" departLane="best" fromTaz="e18_vest" toTaz="snv_east" />
  <trip id="veh_1559" type="car" depart="0.0" from="1071762868" to="-27184811#3" departLane="best" fromTaz="e18_vest" toTaz="rolfsbukt_syd" />
  <trip id="veh_1677" type="car" depart="0.0" from="13797031" to="32321957" departLane="best" fromTaz="e18_ost" toTaz="wideroe_nordvest" />
  <trip id="veh_1837" type="car" depart="0.0" from="13797031" to="-1014336997" departLane="best" fromTaz="e18_ost" toTaz="odd_nansens_vest" />
  <trip id="veh_1852" type="car" depart="0.0" from="13797031" to="27194983" departLane="best" fromTaz="e18_ost" toTaz="snv_east" />
  <trip id="veh_2097" type="car" depart="0.0" from="13797031" to="-27184811#3" departLane="best" fromTaz="e18_ost" toTaz="rolfsbukt_syd" />
  <trip id="veh_2160" type="car" depart="0.0" from="131600897" to="53141119" departLane="best" fromTaz="ring3_nord" toTaz="bbv_west" />
  <trip id="veh_2230" type="car" depart="0.0" from="131600897" to="-1014336997" departLane="best" fromTaz="ring3_nord" toTaz="odd_nansens_vest" />
  <trip id="veh_2258" type="car" depart="0.0" from="131600897" to="52975954" departLane="best" fromTaz="ring3_nord" toTaz="martin_linges_sydost" />
  <trip id="veh_2342" type="car" depart="0.0" from="131600897" to="-27184811#3" departLane="best" fromTaz="ring3_nord" toTaz="rolfsbukt_syd" />
  <trip id="veh_2424" type="car" depart="0.0" from="466495271#0" to="-1014336997" departLane="best" fromTaz="snv_nordost" toTaz="odd_nansens_vest" />
  <trip id="veh_2498" type="car" depart="0.0" from="466495271#0" to="-27184811#3" departLane="best" fromTaz="snv_nordost" toTaz="rolfsbukt_syd" />
  <trip id="veh_2505" type="car" depart="0.0" from="32321958" to="115505232" departLane="best" fromTaz="wideroe_nordvest" toTaz="snv_syd" />
  <trip id="veh_2843" type="car" depart="0.0" from="32321958" to="362382740" departLane="best" fromTaz="wideroe_nordvest" toTaz="e18_ost" />
  <trip id="veh_3090" type="car" depart="0.0" from="32321958" to="-1014336997" departLane="best" fromTaz="wideroe_nordvest" toTaz="odd_nansens_vest" />
  <trip id="veh_3653" type="car" depart="0.0" from="-53158894" to="113815194" departLane="best" fromTaz="odd_nansens_vest" toTaz="e18_vest" />
  <trip id="veh_3657" type="car" depart="0.0" from="-53158894" to="362382740" departLane="best" fromTaz="odd_nansens_vest" toTaz="e18_ost" />
  <trip id="veh_3666" type="car" depart="0.0" from="-27194983" to="115505232" departLane="best" fromTaz="snv_east" toTaz="snv_syd" />
  <trip id="veh_3668" type="car" depart="0.0" from="-27194983" to="53141119" departLane="best" fromTaz="snv_east" toTaz="bbv_west" />
  <trip id="veh_3669" type="car" depart="0.0" from="-27194983" to="113815194" departLane="best" fromTaz="snv_east" toTaz="e18_vest" />
  <trip id="veh_3685" type="car" depart="0.0" from="-27194983" to="32321957" departLane="best" fromTaz="snv_east" toTaz="wideroe_nordvest" />
  <trip id="veh_3689" type="car" depart="0.0" from="-27194983" to="-1014336997" departLane="best" fromTaz="snv_east" toTaz="odd_nansens_vest" />
  <trip id="veh_3690" type="car" depart="0.0" from="-27194983" to="52975954" departLane="best" fromTaz="snv_east" toTaz="martin_linges_sydost" />
  <trip id="veh_3696" type="car" depart="0.0" from="-52975954" to="115505232" departLane="best" fromTaz="martin_linges_sydost" toTaz="snv_syd" />
  <trip id="veh_3745" type="car" depart="0.0" from="-52975954" to="313965530#1" departLane="best" fromTaz="martin_linges_sydost" toTaz="snv_nordost" />
  <trip id="veh_3749" type="car" depart="0.0" from="-52975954" to="32321957" departLane="best" fromTaz="martin_linges_sydost" toTaz="wideroe_nordvest" />
  <trip id="veh_3814" type="car" depart="0.0" from="27184811#3" to="113815194" departLane="best" fromTaz="rolfsbukt_syd" toTaz="e18_vest" />
  <trip id="veh_4033" type="car" depart="0.0" from="27184811#3" to="32321957" departLane="best" fromTaz="rolfsbukt_syd" toTaz="wideroe_nordvest" />
  <trip id="veh_4088" type="car" depart="0.0" from="27184811#3" to="-1014336997" departLane="best" fromTaz="rolfsbukt_syd" toTaz="odd_nansens_vest" />
  <trip id="veh_4106" type="car" depart="0.0" from="27184811#3" to="52975954" departLane="best" fromTaz="rolfsbukt_syd" toTaz="martin_linges_sydost" />
  <trip id="veh_3216" type="car" depart="0.4" from="32321958" to="52975954" departLane="best" fromTaz="wideroe_nordvest" toTaz="martin_linges_sydost" />
  <trip id="veh_2442" type="car" depart="0.7" from="466495271#0" to="52975954" departLane="best" fromTaz="snv_nordost" toTaz="martin_linges_sydost" />
  <trip id="veh_1335" type="car" depart="2.3" from="1071762868" to="52975954" departLane="best" fromTaz="e18_vest" toTaz="martin_linges_sydost" />
  <trip id="veh_493" type="car" depart="3.4" from="115505254" to="32321957" departLane="best" fromTaz="snv_syd" toTaz="wideroe_nordvest" />
  <trip id="veh_1901" type="car" depart="5.0" from="13797031" to="52975954" departLane="best" fromTaz="e18_ost" toTaz="martin_linges_sydost" />
  <trip id="veh_836" type="car" depart="5.3" from="-53141119" to="27194983" departLane="best" fromTaz="bbv_west" toTaz="snv_east" />
  <trip id="veh_2679" type="car" depart="6.2" from="32321958" to="113815194" departLane="best" fromTaz="wideroe_nordvest" toTaz="e18_vest" />
  <trip id="veh_3217" type="car" depart="7.7" from="32321958" to="52975954" departLane="best" fromTaz="wideroe_nordvest" toTaz="martin_linges_sydost" />
  <trip id="veh_3049" type="car" depart="7.8" from="32321958" to="313965530#1" departLane="best" fromTaz="wideroe_nordvest" toTaz="snv_nordost" />
  <trip id="veh_3119" type="car" depart="8.9" from="32321958" to="27194983" departLane="best" fromTaz="wideroe_nordvest" toTaz="snv_east" />
  <trip id="veh_977" type="car" depart="10.3" from="1071762868" to="115505232" departLane="best" fromTaz="e18_vest" toTaz="snv_syd" />
  <trip id="veh_2123" type="car" depart="10.7" from="131600897" to="115505232" departLane="best" fromTaz="ring3_nord" toTaz="snv_syd" />
  <trip id="veh_1588" type="car" depart="12.2" from="13797031" to="115505232" departLane="best" fromTaz="e18_ost" toTaz="snv_syd" />
  <trip id="veh_2378" type="car" depart="12.3" from="466495271#0" to="32321957" departLane="best" fromTaz="snv_nordost" toTaz="wideroe_nordvest" />
  <trip id="veh_2353" type="car" depart="12.4" from="466495271#0" to="115505232" departLane="best" fromTaz="snv_nordost" toTaz="snv_syd" />
  <trip id="veh_3771" type="car" depart="13.1" from="27184811#3" to="115505232" departLane="best" fromTaz="rolfsbukt_syd" toTaz="snv_syd" />
  <trip id="veh_2987" type="car" depart="13.4" from="32321958" to="13797030" departLane="best" fromTaz="wideroe_nordvest" toTaz="ring3_nord" />
  <trip id="veh_3901" type="car" depart="14.0" from="27184811#3" to="362382740" departLane="best" fromTaz="rolfsbukt_syd" toTaz="e18_ost" />
  <trip id="veh_2161" type="car" depart="15.5" from="131600897" to="32321957" departLane="best" fromTaz="ring3_nord" toTaz="wideroe_nordvest" />
  <trip id="veh_1336" type="car" depart="15.6" from="1071762868" to="52975954" departLane="best" fromTaz="e18_vest" toTaz="martin_linges_sydost" />
  <trip id="veh_2237" type="car" depart="16.0" from="131600897" to="27194983" departLane="best" fromTaz="ring3_nord" toTaz="snv_east" />
  <trip id="veh_3683" type="car" depart="16.1" from="-27194983" to="313965530#1" departLane="best" fromTaz="snv_east" toTaz="snv_nordost" />
  <trip id="veh_1902" type="car" depart="16.1" from="13797031" to="52975954" departLane="best" fromTaz="e18_ost" toTaz="martin_linges_sydost" />
  <trip id="veh_616" type="car" depart="18.2" from="115505254" to="-1014336997" departLane="best" fromTaz="snv_syd" toTaz="odd_nansens_vest" />
  <trip id="veh_2680" type="car" depart="18.4" from="32321958" to="113815194" departLane="best" fromTaz="wideroe_nordvest" toTaz="e18_vest" />
  <trip id="veh_3602" type="car" depart="19.0" from="32321958" to="-27184811#3" departLane="best" fromTaz="wideroe_nordvest" toTaz="rolfsbukt_syd" />
  <trip id="veh_2" type="car" depart="20.2" from="115505254" to="113815194" departLane="best" fromTaz="snv_syd" toTaz="e18_vest" />
  <trip id="veh_3218" type="car" depart="21.0" from="32321958" to="52975954" departLane="best" fromTaz="wideroe_nordvest" toTaz="martin_linges_sydost" />
  <trip id="veh_199" type="car" depart="21.1" from="115505254" to="362382740" departLane="best" fromTaz="snv_syd" toTaz="e18_ost" />
  <trip id="veh_2506" type="car" depart="23.5" from="32321958" to="115505232" departLane="best" fromTaz="wideroe_nordvest" toTaz="snv_syd" />
  <trip id="veh_1079" type="car" depart="24.5" from="1071762868" to="32321957" departLane="best" fromTaz="e18_vest" toTaz="wideroe_nordvest" />
  <trip id="veh_3723" type="car" depart="25.1" from="-52975954" to="362382740" departLane="best" fromTaz="martin_linges_sydost" toTaz="e18_ost" />
  <trip id="veh_1678" type="car" depart="27.6" from="13797031" to="32321957" departLane="best" fromTaz="e18_ost" toTaz="wideroe_nordvest" />
  <trip id="veh_660" type="car" depart="27.8" from="115505254" to="52975954" departLane="best" fromTaz="snv_syd" toTaz="martin_linges_sydost" />
  <trip id="veh_1337" type="car" depart="29.4" from="1071762868" to="52975954" departLane="best" fromTaz="e18_vest" toTaz="martin_linges_sydost" />
  <trip id="veh_3978" type="car" depart="29.4" from="27184811#3" to="13797030" departLane="best" fromTaz="rolfsbukt_syd" toTaz="ring3_nord" />
  <trip id="veh_3120" type="car" depart="29.7" from="32321958" to="27194983" departLane="best" fromTaz="wideroe_nordvest" toTaz="snv_east" />
  <trip id="veh_2844" type="car" depart="30.5" from="32321958" to="362382740" departLane="best" fromTaz="wideroe_nordvest" toTaz="e18_ost" />
  <trip id="veh_3219" type="car" depart="30.6" from="32321958" to="52975954" departLane="best" fromTaz="wideroe_nordvest" toTaz="martin_linges_sydost" />
  <trip id="veh_3705" type="car" depart="31.3" from="-52975954" to="113815194" departLane="best" fromTaz="martin_linges_sydost" toTaz="e18_vest" />
  <trip id="veh_3" type="car" depart="31.4" from="115505254" to="113815194" departLane="best" fromTaz="snv_syd" toTaz="e18_vest" />
  <trip id="veh_3815" type="car" depart="31.7" from="27184811#3" to="113815194" departLane="best" fromTaz="rolfsbukt_syd" toTaz="e18_vest" />
  <trip id="veh_494" type="car" depart="34.6" from="115505254" to="32321957" departLane="best" fromTaz="snv_syd" toTaz="wideroe_nordvest" />
  <trip id="veh_4011" type="car" depart="35.0" from="27184811#3" to="313965530#1" departLane="best" fromTaz="rolfsbukt_syd" toTaz="snv_nordost" />
  <trip id="veh_2507" type="car" depart="35.7" from="32321958" to="115505232" departLane="best" fromTaz="wideroe_nordvest" toTaz="snv_syd" />
  <trip id="veh_3220" type="car" depart="36.0" from="32321958" to="52975954" departLane="best" fromTaz="wideroe_nordvest" toTaz="martin_linges_sydost" />
  <trip id="veh_1589" type="car" depart="36.4" from="13797031" to="115505232" departLane="best" fromTaz="e18_ost" toTaz="snv_syd" />
  <trip id="veh_1903" type="car" depart="36.5" from="13797031" to="52975954" departLane="best" fromTaz="e18_ost" toTaz="martin_linges_sydost" />
  <trip id="veh_837" type="car" depart="38.4" from="-53141119" to="27194983" departLane="best" fromTaz="bbv_west" toTaz="snv_east" />
  <trip id="veh_200" type="car" depart="38.6" from="115505254" to="362382740" departLane="best" fromTaz="snv_syd" toTaz="e18_ost" />
  <trip id="veh_978" type="car" depart="39.2" from="1071762868" to="115505232" departLane="best" fromTaz="e18_vest" toTaz="snv_syd" />
  <trip id="veh_642" type="car" depart="40.2" from="115505254" to="27194983" departLane="best" fromTaz="snv_syd" toTaz="snv_east" />
  <trip id="veh_1080" type="car" depart="43.4" from="1071762868" to="32321957" departLane="best" fromTaz="e18_vest" toTaz="wideroe_nordvest" />
  <trip id="veh_4099" type="car" depart="43.5" from="27184811#3" to="27194983" departLane="best" fromTaz="rolfsbukt_syd" toTaz="snv_east" />
  <trip id="veh_3221" type="car" depart="46.0" from="32321958" to="52975954" departLane="best" fromTaz="wideroe_nordvest" toTaz="martin_linges_sydost" />
  <trip id="veh_2681" type="car" depart="47.1" from="32321958" to="113815194" departLane="best" fromTaz="wideroe_nordvest" toTaz="e18_vest" />
  <trip id="veh_2259" type="car" depart="47.9" from="131600897" to="52975954" departLane="best" fromTaz="ring3_nord" toTaz="martin_linges_sydost" />
  <trip id="veh_661" type="car" depart="48.5" from="115505254" to="52975954" departLane="best" fromTaz="snv_syd" toTaz="martin_linges_sydost" />
  <trip id="veh_2443" type="car" depart="49.0" from="466495271#0" to="52975954" departLane="best" fromTaz="snv_nordost" toTaz="martin_linges_sydost" />
  <trip id="veh_1279" type="car" depart="49.3" from="1071762868" to="27194983" departLane="best" fromTaz="e18_vest" toTaz="snv_east" />
  <trip id="veh_1679" type="car" depart="49.4" from="13797031" to="32321957" departLane="best" fromTaz="e18_ost" toTaz="wideroe_nordvest" />
  <trip id="veh_2162" type="car" depart="49.6" from="131600897" to="32321957" departLane="best" fromTaz="ring3_nord" toTaz="wideroe_nordvest" />
  <trip id="veh_2845" type="car" depart="50.4" from="32321958" to="362382740" departLane="best" fromTaz="wideroe_nordvest" toTaz="e18_ost" />
  <trip id="veh_1338" type="car" depart="51.1" from="1071762868" to="52975954" departLane="best" fromTaz="e18_vest" toTaz="martin_linges_sydost" />
  <trip id="veh_4" type="car" depart="51.9" from="115505254" to="113815194" departLane="best" fromTaz="snv_syd" toTaz="e18_vest" />
  <trip id="veh_4034" type="car" depart="53.1" from="27184811#3" to="32321957" departLane="best" fromTaz="rolfsbukt_syd" toTaz="wideroe_nordvest" />
  <trip id="veh_1081" type="car" depart="54.3" from="1071762868" to="32321957" departLane="best" fromTaz="e18_vest" toTaz="wideroe_nordvest" />
  <trip id="veh_3222" type="car" depart="54.9" from="32321958" to="52975954" departLane="best" fromTaz="wideroe_nordvest" toTaz="martin_linges_sydost" />
  <trip id="veh_3675" type="car" depart="55.4" from="-27194983" to="362382740" departLane="best" fromTaz="snv_east" toTaz="e18_ost" />
  <trip id="veh_838" type="car" depart="55.8" from="-53141119" to="27194983" departLane="best" fromTaz="bbv_west" toTaz="snv_east" />
  <trip id="veh_3902" type="car" depart="57.3" from="27184811#3" to="362382740" departLane="best" fromTaz="rolfsbukt_syd" toTaz="e18_ost" />
  <trip id="veh_495" type="car" depart="57.3" from="115505254" to="32321957" departLane="best" fromTaz="snv_syd" toTaz="wideroe_nordvest" />
  <trip id="veh_1904" type="car" depart="57.3" from="13797031" to="52975954" departLane="best" fromTaz="e18_ost" toTaz="martin_linges_sydost" />
  <trip id="veh_3772" type="car" depart="59.9" from="27184811#3" to="115505232" departLane="best" fromTaz="rolfsbukt_syd" toTaz="snv_syd" />
  <trip id="veh_371" type="car" depart="62.3" from="115505254" to="13797030" departLane="best" fromTaz="snv_syd" toTaz="ring3_nord" />
  <trip id="veh_1339" type="car" depart="63.2" from="1071762868" to="52975954" departLane="best" fromTaz="e18_vest" toTaz="martin_linges_sydost" />
  <trip id="veh_201" type="car" depart="63.5" from="115505254" to="362382740" departLane="best" fromTaz="snv_syd" toTaz="e18_ost" />
  <trip id="veh_2682" type="car" depart="64.9" from="32321958" to="113815194" departLane="best" fromTaz="wideroe_nordvest" toTaz="e18_vest" />
  <trip id="veh_979" type="car" depart="66.0" from="1071762868" to="115505232" departLane="best" fromTaz="e18_vest" toTaz="snv_syd" />
  <trip id="veh_2508" type="car" depart="66.8" from="32321958" to="115505232" departLane="best" fromTaz="wideroe_nordvest" toTaz="snv_syd" />
  <trip id="veh_3223" type="car" depart="67.2" from="32321958" to="52975954" departLane="best" fromTaz="wideroe_nordvest" toTaz="martin_linges_sydost" />
  <trip id="veh_1680" type="car" depart="67.8" from="13797031" to="32321957" departLane="best" fromTaz="e18_ost" toTaz="wideroe_nordvest" />
  <trip id="veh_3816" type="car" depart="70.5" from="27184811#3" to="113815194" departLane="best" fromTaz="rolfsbukt_syd" toTaz="e18_vest" />
  <trip id="veh_1853" type="car" depart="70.8" from="13797031" to="27194983" departLane="best" fromTaz="e18_ost" toTaz="snv_east" />
  <trip id="veh_2428" type="car" depart="70.8" from="466495271#0" to="27194983" departLane="best" fromTaz="snv_nordost" toTaz="snv_east" />
  <trip id="veh_2988" type="car" depart="71.5" from="32321958" to="13797030" departLane="best" fromTaz="wideroe_nordvest" toTaz="ring3_nord" />
  <trip id="veh_2846" type="car" depart="72.5" from="32321958" to="362382740" departLane="best" fromTaz="wideroe_nordvest" toTaz="e18_ost" />
  <trip id="veh_1905" type="car" depart="73.1" from="13797031" to="52975954" departLane="best" fromTaz="e18_ost" toTaz="martin_linges_sydost" />
  <trip id="veh_5" type="car" depart="75.5" from="115505254" to="113815194" departLane="best" fromTaz="snv_syd" toTaz="e18_vest" />
  <trip id="veh_3121" type="car" depart="76.2" from="32321958" to="27194983" departLane="best" fromTaz="wideroe_nordvest" toTaz="snv_east" />
  <trip id="veh_3224" type="car" depart="76.3" from="32321958" to="52975954" departLane="best" fromTaz="wideroe_nordvest" toTaz="martin_linges_sydost" />
  <trip id="veh_1590" type="car" depart="77.3" from="13797031" to="115505232" departLane="best" fromTaz="e18_ost" toTaz="snv_syd" />
  <trip id="veh_662" type="car" depart="77.9" from="115505254" to="52975954" departLane="best" fromTaz="snv_syd" toTaz="martin_linges_sydost" />
  <trip id="veh_2260" type="car" depart="80.3" from="131600897" to="52975954" departLane="best" fromTaz="ring3_nord" toTaz="martin_linges_sydost" />
  <trip id="veh_1082" type="car" depart="81.3" from="1071762868" to="32321957" departLane="best" fromTaz="e18_vest" toTaz="wideroe_nordvest" />
  <trip id="veh_2379" type="car" depart="81.5" from="466495265#0" to="32321957" departLane="best" fromTaz="snv_nordost" toTaz="wideroe_nordvest" />
  <trip id="veh_3225" type="car" depart="81.8" from="32321958" to="52975954" departLane="best" fromTaz="wideroe_nordvest" toTaz="martin_linges_sydost" />
  <trip id="veh_3050" type="car" depart="83.1" from="32321958" to="313965530#1" departLane="best" fromTaz="wideroe_nordvest" toTaz="snv_nordost" />
  <trip id="veh_445" type="car" depart="83.2" from="115505254" to="313965530#1" departLane="best" fromTaz="snv_syd" toTaz="snv_nordost" />
  <trip id="veh_1340" type="car" depart="83.5" from="1071762868" to="52975954" departLane="best" fromTaz="e18_vest" toTaz="martin_linges_sydost" />
  <trip id="veh_496" type="car" depart="84.7" from="115505254" to="32321957" departLane="best" fromTaz="snv_syd" toTaz="wideroe_nordvest" />
  <trip id="veh_202" type="car" depart="85.6" from="115505254" to="362382740" departLane="best" fromTaz="snv_syd" toTaz="e18_ost" />
  <trip id="veh_372" type="car" depart="85.7" from="115505254" to="13797030" departLane="best" fromTaz="snv_syd" toTaz="ring3_nord" />
  <trip id="veh_3603" type="car" depart="86.6" from="32321958" to="-27184811#3" departLane="best" fromTaz="wideroe_nordvest" toTaz="rolfsbukt_syd" />
  <trip id="veh_2509" type="car" depart="87.8" from="32321958" to="115505232" departLane="best" fromTaz="wideroe_nordvest" toTaz="snv_syd" />
  <trip id="veh_1681" type="car" depart="88.3" from="13797031" to="32321957" departLane="best" fromTaz="e18_ost" toTaz="wideroe_nordvest" />
  <trip id="veh_1906" type="car" depart="88.4" from="13797031" to="52975954" departLane="best" fromTaz="e18_ost" toTaz="martin_linges_sydost" />
  <trip id="veh_2124" type="car" depart="89.3" from="131600897" to="115505232" departLane="best" fromTaz="ring3_nord" toTaz="snv_syd" />
  <trip id="veh_2163" type="car" depart="89.6" from="131600897" to="32321957" departLane="best" fromTaz="ring3_nord" toTaz="wideroe_nordvest" />
  <trip id="veh_6" type="car" depart="90.8" from="115505254" to="113815194" departLane="best" fromTaz="snv_syd" toTaz="e18_vest" />
  <trip id="veh_839" type="car" depart="90.9" from="-53141119" to="27194983" departLane="best" fromTaz="bbv_west" toTaz="snv_east" />
  <trip id="veh_2683" type="car" depart="90.9" from="32321958" to="113815194" departLane="best" fromTaz="wideroe_nordvest" toTaz="e18_vest" />
  <trip id="veh_1341" type="car" depart="92.5" from="1071762868" to="52975954" departLane="best" fromTaz="e18_vest" toTaz="martin_linges_sydost" />
  <trip id="veh_3763" type="car" depart="93.7" from="-52975954" to="-27184811#3" departLane="best" fromTaz="martin_linges_sydost" toTaz="rolfsbukt_syd" />
  <trip id="veh_3226" type="car" depart="95.7" from="32321958" to="52975954" departLane="best" fromTaz="wideroe_nordvest" toTaz="martin_linges_sydost" />
  <trip id="veh_3091" type="car" depart="97.5" from="32321958" to="-1014336997" departLane="best" fromTaz="wideroe_nordvest" toTaz="odd_nansens_vest" />
  <trip id="veh_663" type="car" depart="99.4" from="115505254" to="52975954" departLane="best" fromTaz="snv_syd" toTaz="martin_linges_sydost" />
  <trip id="veh_3903" type="car" depart="99.9" from="27184811#3" to="362382740" departLane="best" fromTaz="rolfsbukt_syd" toTaz="e18_ost" />
  <trip id="veh_2847" type="car" depart="100.1" from="32321958" to="362382740" departLane="best" fromTaz="wideroe_nordvest" toTaz="e18_ost" />
  <trip id="veh_1083" type="car" depart="100.2" from="1071762868" to="32321957" departLane="best" fromTaz="e18_vest" toTaz="wideroe_nordvest" />
  <trip id="veh_3227" type="car" depart="103.6" from="32321958" to="52975954" departLane="best" fromTaz="wideroe_nordvest" toTaz="martin_linges_sydost" />
  <trip id="veh_980" type="car" depart="103.8" from="1071762868" to="115505232" departLane="best" fromTaz="e18_vest" toTaz="snv_syd" />
  <trip id="veh_2510" type="car" depart="106.6" from="32321958" to="115505232" departLane="best" fromTaz="wideroe_nordvest" toTaz="snv_syd" />
  <trip id="veh_203" type="car" depart="108.3" from="115505254" to="362382740" departLane="best" fromTaz="snv_syd" toTaz="e18_ost" />
  <trip id="veh_3122" type="car" depart="109.1" from="32321958" to="27194983" departLane="best" fromTaz="wideroe_nordvest" toTaz="snv_east" />
  <trip id="veh_3228" type="car" depart="110.8" from="32321958" to="52975954" departLane="best" fromTaz="wideroe_nordvest" toTaz="martin_linges_sydost" />
  <trip id="veh_1342" type="car" depart="111.3" from="1071762868" to="52975954" departLane="best" fromTaz="e18_vest" toTaz="martin_linges_sydost" />
  <trip id="veh_1907" type="car" depart="112.5" from="13797031" to="52975954" departLane="best" fromTaz="e18_ost" toTaz="martin_linges_sydost" />
  <trip id="veh_7" type="car" depart="112.5" from="115505254" to="113815194" departLane="best" fromTaz="snv_syd" toTaz="e18_vest" />
  <trip id="veh_2684" type="car" depart="112.5" from="32321958" to="113815194" departLane="best" fromTaz="wideroe_nordvest" toTaz="e18_vest" />
  <trip id="veh_1084" type="car" depart="114.8" from="1071762868" to="32321957" departLane="best" fromTaz="e18_vest" toTaz="wideroe_nordvest" />
  <trip id="veh_3817" type="car" depart="115.8" from="27184811#3" to="113815194" departLane="best" fromTaz="rolfsbukt_syd" toTaz="e18_vest" />
  <trip id="veh_1682" type="car" depart="118.1" from="13797031" to="32321957" departLane="best" fromTaz="e18_ost" toTaz="wideroe_nordvest" />
  <trip id="veh_2848" type="car" depart="119.2" from="32321958" to="362382740" departLane="best" fromTaz="wideroe_nordvest" toTaz="e18_ost" />
  <trip id="veh_497" type="car" depart="119.9" from="115505254" to="32321957" departLane="best" fromTaz="snv_syd" toTaz="wideroe_nordvest" />
  <trip id="veh_1560" type="car" depart="120.4" from="1071762868" to="-27184811#3" departLane="best" fromTaz="e18_vest" toTaz="rolfsbukt_syd" />
  <trip id="veh_1280" type="car" depart="121.2" from="1071762868" to="27194983" departLane="best" fromTaz="e18_vest" toTaz="snv_east" />
  <trip id="veh_204" type="car" depart="122.1" from="115505254" to="362382740" departLane="best" fromTaz="snv_syd" toTaz="e18_ost" />
  <trip id="veh_2511" type="car" depart="122.2" from="32321958" to="115505232" departLane="best" fromTaz="wideroe_nordvest" toTaz="snv_syd" />
  <trip id="veh_3229" type="car" depart="122.9" from="32321958" to="52975954" departLane="best" fromTaz="wideroe_nordvest" toTaz="martin_linges_sydost" />
  <trip id="veh_2261" type="car" depart="124.6" from="131600897" to="52975954" departLane="best" fromTaz="ring3_nord" toTaz="martin_linges_sydost" />
  <trip id="veh_840" type="car" depart="125.2" from="-53141119" to="27194983" departLane="best" fromTaz="bbv_west" toTaz="snv_east" />
  <trip id="veh_8" type="car" depart="126.2" from="115505254" to="113815194" departLane="best" fromTaz="snv_syd" toTaz="e18_vest" />
  <trip id="veh_1908" type="car" depart="127.3" from="13797031" to="52975954" departLane="best" fromTaz="e18_ost" toTaz="martin_linges_sydost" />
  <trip id="veh_3230" type="car" depart="128.0" from="32321958" to="52975954" departLane="best" fromTaz="wideroe_nordvest" toTaz="martin_linges_sydost" />
  <trip id="veh_1591" type="car" depart="129.2" from="13797031" to="115505232" departLane="best" fromTaz="e18_ost" toTaz="snv_syd" />
  <trip id="veh_1854" type="car" depart="129.3" from="13797031" to="27194983" departLane="best" fromTaz="e18_ost" toTaz="snv_east" />
  <trip id="veh_3904" type="car" depart="130.2" from="27184811#3" to="362382740" departLane="best" fromTaz="rolfsbukt_syd" toTaz="e18_ost" />
  <trip id="veh_3604" type="car" depart="130.7" from="32321958" to="-27184811#3" departLane="best" fromTaz="wideroe_nordvest" toTaz="rolfsbukt_syd" />
  <trip id="veh_3738" type="car" depart="130.8" from="-52975954" to="13797030" departLane="best" fromTaz="martin_linges_sydost" toTaz="ring3_nord" />
  <trip id="veh_3979" type="car" depart="131.2" from="27184811#3" to="13797030" departLane="best" fromTaz="rolfsbukt_syd" toTaz="ring3_nord" />
  <trip id="veh_2685" type="car" depart="131.7" from="32321958" to="113815194" departLane="best" fromTaz="wideroe_nordvest" toTaz="e18_vest" />
  <trip id="veh_1343" type="car" depart="132.7" from="1071762868" to="52975954" departLane="best" fromTaz="e18_vest" toTaz="martin_linges_sydost" />
  <trip id="veh_2989" type="car" depart="133.3" from="32321958" to="13797030" departLane="best" fromTaz="wideroe_nordvest" toTaz="ring3_nord" />
  <trip id="veh_664" type="car" depart="136.4" from="115505254" to="52975954" departLane="best" fromTaz="snv_syd" toTaz="martin_linges_sydost" />
  <trip id="veh_981" type="car" depart="137.0" from="1071762868" to="115505232" departLane="best" fromTaz="e18_vest" toTaz="snv_syd" />
  <trip id="veh_3231" type="car" depart="137.4" from="32321958" to="52975954" departLane="best" fromTaz="wideroe_nordvest" toTaz="martin_linges_sydost" />
  <trip id="veh_1683" type="car" depart="139.0" from="13797031" to="32321957" departLane="best" fromTaz="e18_ost" toTaz="wideroe_nordvest" />
  <trip id="veh_4035" type="car" depart="140.6" from="27184811#3" to="32321957" departLane="best" fromTaz="rolfsbukt_syd" toTaz="wideroe_nordvest" />
  <trip id="veh_446" type="car" depart="141.0" from="115505254" to="313965530#1" departLane="best" fromTaz="snv_syd" toTaz="snv_nordost" />
  <trip id="veh_1085" type="car" depart="141.1" from="1071762868" to="32321957" departLane="best" fromTaz="e18_vest" toTaz="wideroe_nordvest" />
  <trip id="veh_841" type="car" depart="142.8" from="-53141119" to="27194983" departLane="best" fromTaz="bbv_west" toTaz="snv_east" />
  <trip id="veh_2512" type="car" depart="143.2" from="32321958" to="115505232" departLane="best" fromTaz="wideroe_nordvest" toTaz="snv_syd" />