<?xml version='1.0' encoding='utf-8'?>
<routes>
  <vType id="car" vClass="passenger" length="4.5" maxSpeed="50.0" accel="2.6" decel="4.5" sigma="0.5" jmTimegapMinor="1.5" />
  <trip id="veh_1645" type="car" depart="0.0" from="401685146" to="30504996" />
  <trip id="veh_2064" type="car" depart="0.0" from="32321958" to="467782354#1" />
  <trip id="veh_3052" type="car" depart="0.0" from="115505226" to="1457864036" />
  <trip id="veh_3885" type="car" depart="0.0" from="27195187#0" to="969642449" />
  <trip id="veh_4812" type="car" depart="0.0" from="-27184811#3" to="1077840622" />
  <trip id="veh_0" type="car" depart="0.3" from="115505247" to="467782354#3" />
  <trip id="veh_1151" type="car" depart="0.8" from="466495265#0" to="401685145" />
  <trip id="veh_4981" type="car" depart="1.3" from="13798311#1" to="-48017210#12" />
  <trip id="veh_5367" type="car" depart="2.6" from="115505198#2" to="27184811#3" />
  <trip id="veh_1" type="car" depart="2.7" from="125556485" to="115505225" />
  <trip id="veh_2849" type="car" depart="3.9" from="115505225" to="150926454" />
  <trip id="veh_2065" type="car" depart="4.7" from="1457864036" to="467782354#0" />
  <trip id="veh_3886" type="car" depart="4.9" from="277705937#0" to="1077838538" />
  <trip id="veh_3053" type="car" depart="5.1" from="-47035940" to="1457864036" />
  <trip id="veh_2" type="car" depart="6.7" from="473440889" to="1077838537" />
  <trip id="veh_1152" type="car" depart="7.7" from="466495201#0" to="-1457864036" />
  <trip id="veh_4982" type="car" depart="7.7" from="1077840622" to="115505241" />
  <trip id="veh_3054" type="car" depart="8.2" from="13798307#0" to="401685145" />
  <trip id="veh_3887" type="car" depart="8.2" from="-1248839127#1" to="115505207" />
  <trip id="veh_2066" type="car" depart="9.5" from="1457864036" to="467782354#0" />
  <trip id="veh_3" type="car" depart="9.6" from="150887967" to="-47035940" />
  <trip id="veh_1646" type="car" depart="9.9" from="32321958" to="478475143" />
  <trip id="veh_5368" type="car" depart="11.1" from="969642449" to="-27184811#3" />
  <trip id="veh_3888" type="car" depart="11.2" from="-27195187#3" to="115505198#0" />
  <trip id="veh_4" type="car" depart="11.7" from="125556487" to="466495198" />
  <trip id="veh_2067" type="car" depart="12.7" from="32321957" to="467782354#3" />
  <trip id="veh_3055" type="car" depart="14.2" from="13797495" to="32321957" />
  <trip id="veh_4765" type="car" depart="15.2" from="-27195187#3" to="-225338535#1" />
  <trip id="veh_5" type="car" depart="15.8" from="697648978" to="115505226" />
  <trip id="veh_2850" type="car" depart="16.0" from="115505225" to="-113813267" />
  <trip id="veh_1153" type="car" depart="16.7" from="113815194" to="401685146" />
  <trip id="veh_3889" type="car" depart="16.8" from="27195187#2" to="969642449" />
  <trip id="veh_3056" type="car" depart="17.5" from="466495198" to="1457864036" />
  <trip id="veh_1647" type="car" depart="18.6" from="32321958" to="1071762868" />
  <trip id="veh_4813" type="car" depart="19.1" from="225338534" to="320581596#1" />
  <trip id="veh_6" type="car" depart="19.2" from="473440889" to="13798307#0" />
  <trip id="veh_2068" type="car" depart="19.3" from="401685146" to="-47035940" />
  <trip id="veh_3890" type="car" depart="20.0" from="48017210#11" to="47035943" />
  <trip id="veh_4983" type="car" depart="20.1" from="-52754549" to="-48017210#1" />
  <trip id="veh_3057" type="car" depart="20.7" from="115505255" to="401685145" />
  <trip id="veh_7" type="car" depart="21.4" from="968251937" to="115505255" />
  <trip id="veh_1154" type="car" depart="21.6" from="-1180739476" to="-1457864036" />
  <trip id="veh_2069" type="car" depart="22.3" from="-1457864036" to="13798307#1" />
  <trip id="veh_5369" type="car" depart="22.6" from="13797498" to="-27184811#3" />
  <trip id="veh_3891" type="car" depart="23.7" from="115505254" to="-52754549" />
  <trip id="veh_1648" type="car" depart="25.1" from="401685145" to="466204274" />
  <trip id="veh_3058" type="car" depart="25.5" from="13797495" to="-1457864036" />
  <trip id="veh_8" type="car" depart="25.6" from="113815195" to="115505225" />
  <trip id="veh_4984" type="car" depart="28.1" from="13795988" to="-43216026" />
  <trip id="veh_9" type="car" depart="28.5" from="150888055" to="115505255" />
  <trip id="veh_2070" type="car" depart="28.6" from="32321957" to="13798307#1" />
  <trip id="veh_3892" type="car" depart="29.6" from="515410724#0" to="13798311#1" />
  <trip id="veh_3059" type="car" depart="30.3" from="467782354#1" to="401685146" />
  <trip id="veh_10" type="car" depart="30.6" from="150888055" to="1077838537" />
  <trip id="veh_1155" type="car" depart="30.9" from="150888050" to="-1457864036" />
  <trip id="veh_3893" type="car" depart="33.0" from="-200498484" to="1077838538" />
  <trip id="veh_2071" type="car" depart="33.0" from="32321957" to="115505226" />
  <trip id="veh_1649" type="car" depart="33.1" from="32321957" to="8367461" />
  <trip id="veh_11" type="car" depart="33.6" from="466495275" to="13797495" />
  <trip id="veh_3060" type="car" depart="33.7" from="115505226" to="401685145" />
  <trip id="veh_5370" type="car" depart="34.0" from="115505198#0" to="225338534" />
  <trip id="veh_1156" type="car" depart="34.4" from="466134866#1" to="-1457864036" />
  <trip id="veh_2072" type="car" depart="36.8" from="1457864036" to="1077838537" />
  <trip id="veh_3894" type="car" depart="38.0" from="200498484" to="115505257" />
  <trip id="veh_12" type="car" depart="38.2" from="97122627" to="115505255" />
  <trip id="veh_4985" type="car" depart="38.8" from="13797498" to="48017210#15" />
  <trip id="veh_2851" type="car" depart="39.2" from="13798307#1" to="338682320" />
  <trip id="veh_3061" type="car" depart="39.7" from="466495198" to="-1457864036" />
  <trip id="veh_2073" type="car" depart="40.9" from="-1457864036" to="115505226" />
  <trip id="veh_13" type="car" depart="41.2" from="466134866#0" to="466495198" />
  <trip id="veh_3895" type="car" depart="42.1" from="48017210#6" to="-52754549" />
  <trip id="veh_1650" type="car" depart="42.2" from="401685146" to="30504996" />
  <trip id="veh_1157" type="car" depart="42.3" from="8367461" to="32321958" />
  <trip id="veh_5371" type="car" depart="43.0" from="969642449" to="-115505244#0" />
  <trip id="veh_3062" type="car" depart="43.0" from="115505226" to="1457864036" />
  <trip id="veh_14" type="car" depart="43.1" from="205946628" to="1077838537" />
  <trip id="veh_4814" type="car" depart="43.8" from="-115505244#1" to="47035943" />
  <trip id="veh_3896" type="car" depart="44.2" from="115505232" to="969642449" />
  <trip id="veh_4986" type="car" depart="45.1" from="115505257" to="115505254" />
  <trip id="veh_2074" type="car" depart="47.0" from="32321958" to="466495198" />
  <trip id="veh_15" type="car" depart="47.0" from="971292799" to="467782354#0" />
  <trip id="veh_3063" type="car" depart="47.9" from="115505226" to="-1457864036" />
  <trip id="veh_3897" type="car" depart="48.2" from="-1248839127#1" to="13795988" />
  <trip id="veh_2075" type="car" depart="49.1" from="32321958" to="466495198" />
  <trip id="veh_16" type="car" depart="50.8" from="150926454" to="467782354#0" />
  <trip id="veh_3064" type="car" depart="51.4" from="467782354#1" to="32321958" />
  <trip id="veh_3898" type="car" depart="52.0" from="48017210#3" to="47035943" />
  <trip id="veh_5372" type="car" depart="52.1" from="969642449" to="-225338535#0" />
  <trip id="veh_1158" type="car" depart="52.4" from="30504996" to="32321958" />
  <trip id="veh_17" type="car" depart="52.6" from="466495196" to="-47035940" />
  <trip id="veh_1651" type="car" depart="52.8" from="401685146" to="-113813267" />
  <trip id="veh_2076" type="car" depart="54.1" from="32321957" to="13798307#1" />
  <trip id="veh_2852" type="car" depart="56.1" from="-47035940" to="131600897" />
  <trip id="veh_1159" type="car" depart="56.2" from="338682322" to="1457864036" />
  <trip id="veh_3899" type="car" depart="56.4" from="27195187#0" to="1077838538" />
  <trip id="veh_18" type="car" depart="56.6" from="150888042" to="1077838537" />
  <trip id="veh_3065" type="car" depart="56.7" from="13798307#1" to="401685145" />
  <trip id="veh_4987" type="car" depart="57.8" from="13795988" to="48017210#13" />
  <trip id="veh_19" type="car" depart="60.1" from="466495275" to="13798307#0" />
  <trip id="veh_2077" type="car" depart="60.3" from="401685145" to="115505255" />
  <trip id="veh_3066" type="car" depart="61.0" from="467782354#0" to="401685145" />
  <trip id="veh_1652" type="car" depart="61.4" from="32321958" to="1059461022" />
  <trip id="veh_20" type="car" depart="62.1" from="150926454" to="115505225" />
  <trip id="veh_3900" type="car" depart="62.3" from="-1248839127#1" to="115505198#2" />
  <trip id="veh_5373" type="car" depart="63.2" from="1077840622" to="27184811#1" />
  <trip id="veh_4988" type="car" depart="63.3" from="969642449" to="1248839127#1" />
  <trip id="veh_3901" type="car" depart="64.6" from="-277705937#1" to="320581596#1" />
  <trip id="veh_1160" type="car" depart="64.9" from="113813267" to="32321957" />
  <trip id="veh_2078" type="car" depart="65.0" from="1457864036" to="1077838537" />
  <trip id="veh_21" type="car" depart="65.4" from="1180739476" to="467782354#1" />
  <trip id="veh_4815" type="car" depart="65.9" from="225338534" to="115505198#0" />
  <trip id="veh_3067" type="car" depart="66.0" from="467782354#0" to="32321957" />
  <trip id="veh_1653" type="car" depart="66.7" from="401685145" to="315957532" />
  <trip id="veh_22" type="car" depart="68.4" from="466495201#0" to="467782354#0" />
  <trip id="veh_3068" type="car" depart="68.9" from="115505225" to="-1457864036" />
  <trip id="veh_2079" type="car" depart="69.7" from="401685145" to="467782354#1" />
  <trip id="veh_3902" type="car" depart="70.0" from="-48017210#10" to="115505198#1" />
  <trip id="veh_1161" type="car" depart="71.9" from="1059461004" to="-1457864036" />
  <trip id="veh_23" type="car" depart="72.2" from="467248352-AddedOnRampEdge" to="467782354#3" />
  <trip id="veh_3903" type="car" depart="73.1" from="-48017210#17" to="1077838538" />
  <trip id="veh_3069" type="car" depart="73.4" from="-47035940" to="32321958" />
  <trip id="veh_5374" type="car" depart="73.4" from="13795988" to="225338534" />
  <trip id="veh_2853" type="car" depart="74.5" from="13798307#1" to="150888055" />
  <trip id="veh_24" type="car" depart="74.6" from="466134866#1" to="13798307#0" />
  <trip id="veh_2080" type="car" depart="74.7" from="1457864036" to="467782354#3" />
  <trip id="veh_2081" type="car" depart="76.7" from="32321958" to="467782354#3" />
  <trip id="veh_4989" type="car" depart="76.7" from="-52754549" to="27195187#2" />
  <trip id="veh_3070" type="car" depart="77.1" from="-47035940" to="401685146" />
  <trip id="veh_3904" type="car" depart="77.4" from="515410680#1" to="13798311#1" />
  <trip id="veh_4766" type="car" depart="77.6" from="-27195187#0" to="-27184811#1" />
  <trip id="veh_25" type="car" depart="77.8" from="697648978" to="115505226" />
  <trip id="veh_1654" type="car" depart="78.8" from="401685145" to="97122637" />
  <trip id="veh_1162" type="car" depart="80.7" from="97122637" to="1457864036" />
  <trip id="veh_3905" type="car" depart="81.3" from="48017210#17" to="115505207" />
  <trip id="veh_3071" type="car" depart="81.4" from="115505226" to="32321958" />
  <trip id="veh_26" type="car" depart="81.7" from="313965530#1" to="115505226" />
  <trip id="veh_4816" type="car" depart="82.4" from="27184811#1" to="13797498" />
  <trip id="veh_2082" type="car" depart="83.6" from="-1457864036" to="-47035940" />
  <trip id="veh_5375" type="car" depart="85.0" from="969642449" to="-970292662" />
  <trip id="veh_27" type="car" depart="85.1" from="150888047" to="13798307#0" />
  <trip id="veh_4990" type="car" depart="85.8" from="115505198#1" to="-48017210#1" />
  <trip id="veh_3906" type="car" depart="85.9" from="277705937#0" to="969642449" />
  <trip id="veh_2854" type="car" depart="86.4" from="115505225" to="466495265#0" />
  <trip id="veh_2083" type="car" depart="86.6" from="-1457864036" to="467782354#1" />
  <trip id="veh_3072" type="car" depart="86.8" from="115505226" to="32321958" />
  <trip id="veh_1655" type="car" depart="86.9" from="401685146" to="313965526" />
  <trip id="veh_28" type="car" depart="87.1" from="1180739479" to="467782354#0" />
  <trip id="veh_1163" type="car" depart="88.1" from="466204277#1" to="32321958" />
  <trip id="veh_3907" type="car" depart="89.2" from="-48017210#15" to="115505198#0" />
  <trip id="veh_3073" type="car" depart="91.4" from="13797495" to="401685146" />
  <trip id="veh_29" type="car" depart="91.4" from="150888047" to="115505226" />
  <trip id="veh_2084" type="car" depart="92.7" from="-1457864036" to="13797495" />
  <trip id="veh_1656" type="car" depart="92.8" from="401685146" to="113815195" />
  <trip id="veh_5376" type="car" depart="93.1" from="115505207" to="-27184811#1" />
  <trip id="veh_4991" type="car" depart="94.0" from="115505207" to="-48017210#14" />
  <trip id="veh_30" type="car" depart="94.1" from="30504996" to="467782354#1" />
  <trip id="veh_3908" type="car" depart="94.6" from="115505241" to="115505207" />
  <trip id="veh_3074" type="car" depart="94.8" from="13798307#0" to="1457864036" />
  <trip id="veh_2085" type="car" depart="96.2" from="-1457864036" to="1077838537" />
  <trip id="veh_1164" type="car" depart="96.4" from="466204274" to="-1457864036" />
  <trip id="veh_31" type="car" depart="96.9" from="13797031" to="115505225" />
  <trip id="veh_3909" type="car" depart="97.2" from="115505254" to="1077840622" />
  <trip id="veh_32" type="car" depart="99.6" from="697648978" to="466495198" />
  <trip id="veh_1165" type="car" depart="100.2" from="27195543#1" to="1457864036" />
  <trip id="veh_3075" type="car" depart="100.2" from="-47035940" to="32321957" />
  <trip id="veh_2086" type="car" depart="100.9" from="401685146" to="467782354#3" />
  <trip id="veh_3076" type="car" depart="102.5" from="13797495" to="-1457864036" />
  <trip id="veh_33" type="car" depart="102.8" from="92221929" to="13798307#0" />
  <trip id="veh_3910" type="car" depart="103.0" from="48017210#17" to="115505207" />
  <trip id="veh_2855" type="car" depart="103.9" from="467782354#3" to="338682320" />
  <trip id="veh_1657" type="car" depart="104.7" from="1457864036" to="466134866#1-AddedOnRampEdge" />
  <trip id="veh_4992" type="car" depart="104.7" from="320581596#1" to="48017210#17" />
  <trip id="veh_4817" type="car" depart="104.9" from="-225338535#0" to="-52754549" />
  <trip id="veh_2087" type="car" depart="105.0" from="401685145" to="115505255" />
  <trip id="veh_34" type="car" depart="107.1" from="315957532" to="13797495" />
  <trip id="veh_3911" type="car" depart="107.3" from="48017210#1" to="13797498" />
  <trip id="veh_3077" type="car" depart="108.2" from="115505225" to="32321957" />
  <trip id="veh_5377" type="car" depart="108.4" from="115505198#1" to="-225338535#1" />
  <trip id="veh_35" type="car" depart="108.9" from="-150888042" to="466495198" />
  <trip id="veh_1166" type="car" depart="109.0" from="467248352-AddedOffRampEdge" to="1457864036" />
  <trip id="veh_2088" type="car" depart="110.4" from="1457864036" to="13797495" />
  <trip id="veh_3912" type="car" depart="111.1" from="1248839127#0" to="13797498" />
  <trip id="veh_3078" type="car" depart="112.2" from="467782354#1" to="401685145" />
  <trip id="veh_36" type="car" depart="112.6" from="313965526" to="1077838537" />
  <trip id="veh_4993" type="car" depart="113.4" from="115505198#0" to="48017210#4" />
  <trip id="veh_3913" type="car" depart="113.6" from="27195187#2" to="115505207" />
  <trip id="veh_2089" type="car" depart="113.8" from="32321957" to="115505255" />
  <trip id="veh_1658" type="car" depart="113.9" from="32321958" to="466495271#0" />
  <trip id="veh_37" type="car" depart="115.1" from="1059461022" to="467782354#1" />
  <trip id="veh_5378" type="car" depart="116.3" from="47035943" to="-115505244#1" />
  <trip id="veh_1167" type="car" depart="117.2" from="473440889" to="-1457864036" />
  <trip id="veh_3079" type="car" depart="117.8" from="13797495" to="-1457864036" />
  <trip id="veh_3914" type="car" depart="117.9" from="200498484" to="115505198#2" />
  <trip id="veh_1659" type="car" depart="118.0" from="1457864036" to="150926457" />
  <trip id="veh_38" type="car" depart="118.7" from="466495196" to="13798307#0" />
  <trip id="veh_4994" type="car" depart="119.0" from="320581596#1" to="27195187#0" />
  <trip id="veh_2090" type="car" depart="119.3" from="32321958" to="467782354#1" />
  <trip id="veh_39" type="car" depart="121.8" from="466134866#1" to="466495198" />
  <trip id="veh_3080" type="car" depart="122.2" from="115505226" to="1457864036" />
  <trip id="veh_2856" type="car" depart="122.7" from="467782354#1" to="131600897" />
  <trip id="veh_2091" type="car" depart="122.8" from="1457864036" to="115505225" />
  <trip id="veh_3915" type="car" depart="123.7" from="-27195187#3" to="115505257" />
  <trip id="veh_40" type="car" depart="124.6" from="478475143" to="-47035940" />
  <trip id="veh_3081" type="car" depart="124.8" from="115505226" to="32321957" />
  <trip id="veh_3916" type="car" depart="126.0" from="-200498484" to="13795988" />
  <trip id="veh_1168" type="car" depart="126.0" from="150926433" to="32321958" />
  <trip id="veh_1660" type="car" depart="126.7" from="-1457864036" to="27195543#1" />
  <trip id="veh_5379" type="car" depart="127.6" from="115505198#0" to="27184811#3" />
  <trip id="veh_2092" type="car" depart="127.8" from="-1457864036" to="467782354#0" />
  <trip id="veh_41" type="car" depart="128.6" from="915918523" to="467782354#1" />
  <trip id="veh_4995" type="car" depart="129.1" from="515410724#2" to="48017210#17" />
  <trip id="veh_4818" type="car" depart="129.6" from="-970292662" to="13795988" />
  <trip id="veh_3082" type="car" depart="130.2" from="13797495" to="401685145" />
  <trip id="veh_3917" type="car" depart="130.3" from="43216026" to="115505198#1" />
  <trip id="veh_1169" type="car" depart="131.4" from="466204274-AddedOnRampEdge" to="32321957" />
  <trip id="veh_42" type="car" depart="132.1" from="1431145262#0" to="467782354#1" />
  <trip id="veh_2093" type="car" depart="133.2" from="-1457864036" to="115505226" />
  <trip id="veh_3083" type="car" depart="133.3" from="115505226" to="-1457864036" />
  <trip id="veh_43" type="car" depart="134.2" from="150888042" to="13798307#0" />
  <trip id="veh_3918" type="car" depart="135.3" from="48017210#4" to="115505198#2" />
  <trip id="veh_5380" type="car" depart="135.3" from="115505198#2" to="27184811#1" />
  <trip id="veh_44" type="car" depart="137.0" from="113815195" to="467782354#3" />
  <trip id="veh_3084" type="car" depart="137.5" from="115505255" to="-1457864036" />
  <trip id="veh_2094" type="car" depart="137.7" from="401685145" to="13797495" />
  <trip id="veh_2857" type="car" depart="138.2" from="466495198" to="338682320" />
  <trip id="veh_3919" type="car" depart="138.8" from="-48017210#1" to="1077840622" />
  <trip id="veh_1661" type="car" depart="139.7" from="32321958" to="97122637" />
  <trip id="veh_1170" type="car" depart="140.3" from="466204277#2" to="32321957" />
  <trip id="veh_4767" type="car" depart="140.7" from="48017210#15" to="115505259" />
  <trip id="veh_3085" type="car" depart="141.4" from="467782354#1" to="1457864036" />
  <trip id="veh_45" type="car" depart="141.5" from="13797031" to="466495198" />
  <trip id="veh_2095" type="car" depart="141.5" from="401685146" to="115505255" />
  <trip id="veh_4996" type="car" depart="141.8" from="115505207" to="43216026" />
  <trip id="veh_3920" type="car" depart="143.9" from="48017210#1" to="47035943" />
  <trip id="veh_46" type="car" depart="144.4" from="466204277#2" to="1077838537" />
  <trip id="veh_1171" type="car" depart="145.3" from="113813267" to="-1457864036" />
  <trip id="veh_3921" type="car" depart="146.5" from="1077838551#1" to="1077838538" />
  <trip id="veh_3086" type="car" depart="146.6" from="1077838537" to="32321957" />
  <trip id="veh_4997" type="car" depart="146.7" from="1077838538" to="115505241" />
  <trip id="veh_1662" type="car" depart="146.9" from="32321957" to="968251938" />
  <trip id="veh_2096" type="car" depart="147.0" from="1457864036" to="1077838537" />
  <trip id="veh_4819" type="car" depart="147.4" from="115505217" to="1077838538" />
  <trip id="veh_47" type="car" depart="147.7" from="150888044" to="467782354#1" />
  <trip id="veh_5381" type="car" depart="149.0" from="1077840622" to="-970292662" />
  <trip id="veh_48" type="car" depart="150.1" from="113815194" to="115505225" />
  <trip id="veh_3922" type="car" depart="150.7" from="27195187#0" to="115505198#2" />
  <trip id="veh_2097" type="car" depart="150.8" from="32321957" to="466495198" />
  <trip id="veh_1172" type="car" depart="152.2" from="125556485" to="-1457864036" />
  <trip id="veh_1663" type="car" depart="152.4" from="1457864036" to="466204277#1" />
  <trip id="veh_3087" type="car" depart="152.4" from="115505255" to="32321958" />
  <trip id="veh_49" type="car" depart="153.0" from="1059461022" to="466495198" />
  <trip id="veh_3923" type="car" depart="154.6" from="1248839127#0" to="1077838538" />
  <trip id="veh_3088" type="car" depart="154.9" from="13797495" to="401685146" />
  <trip id="veh_2098" type="car" depart="155.8" from="1457864036" to="-47035940" />
  <trip id="veh_50" type="car" depart="157.2" from="467248352-AddedOffRampEdge" to="-47035940" />
  <trip id="veh_3924" type="car" depart="158.3" from="-1248839127#0" to="320581596#1" />
  <trip id="veh_3089" type="car" depart="159.1" from="466495198" to="401685145" />
  <trip id="veh_51" type="car" depart="159.7" from="466204274-AddedOnRampEdge" to="-47035940" />
  <trip id="veh_2099" type="car" depart="160.4" from="401685146" to="-47035940" />
  <trip id="veh_4998" type="car" depart="160.5" from="320581596#1" to="115505241" />
  <trip id="veh_52" type="car" depart="161.9" from="150926454" to="115505255" />
  <trip id="veh_1173" type="car" depart="162.1" from="1457764832" to="-1457864036" />
  <trip id="veh_2858" type="car" depart="162.7" from="115505225" to="338682322" />
  <trip id="veh_5382" type="car" depart="162.7" from="115505257" to="115505223" />
  <trip id="veh_1664" type="car" depart="162.9" from="1457864036" to="467248352" />
  <trip id="veh_3925" type="car" depart="163.2" from="48017210#13" to="13797498" />
  <trip id="veh_2100" type="car" depart="164.0" from="-1457864036" to="1077838537" />
  <trip id="veh_3090" type="car" depart="165.2" from="467782354#3" to="-1457864036" />
  <trip id="veh_53" type="car" depart="165.3" from="128877276" to="467782354#0" />
  <trip id="veh_3091" type="car" depart="167.6" from="115505225" to="1457864036" />
  <trip id="veh_3926" type="car" depart="168.5" from="-48017210#5" to="13795988" />
  <trip id="veh_1174" type="car" depart="169.0" from="466134866#1-AddedOnRampEdge" to="401685145" />
  <trip id="veh_2101" type="car" depart="169.5" from="1457864036" to="467782354#3" />
  <trip id="veh_54" type="car" depart="169.7" from="466495265#0" to="467782354#3" />
  <trip id="veh_4820" type="car" depart="170.1" from="-225338534" to="115505198#2" />
  <trip id="veh_4999" type="car" depart="170.1" from="13798311#1" to="48017210#3" />
  <trip id="veh_1665" type="car" depart="170.7" from="-1457864036" to="968251938" />
  <trip id="veh_3927" type="car" depart="170.8" from="115505245" to="13797498" />
  <trip id="veh_5383" type="car" depart="171.1" from="13795988" to="-27184811#1" />
  <trip id="veh_55" type="car" depart="172.0" from="466495196" to="466495198" />
  <trip id="veh_3092" type="car" depart="172.1" from="13798307#0" to="401685146" />
  <trip id="veh_1175" type="car" depart="174.3" from="92221929" to="1457864036" />
  <trip id="veh_2102" type="car" depart="174.5" from="401685145" to="467782354#1" />
  <trip id="veh_3928" type="car" depart="175.2" from="-48017210#3" to="1077838538" />
  <trip id="veh_56" type="car" depart="175.7" from="-1180739476" to="467782354#1" />
  <trip id="veh_5000" type="car" depart="176.2" from="13798311#1" to="115505232" />
  <trip id="veh_2859" type="car" depart="176.4" from="13798307#0" to="466134866#0" />
  <trip id="veh_3093" type="car" depart="176.9" from="467782354#0" to="32321958" />
  <trip id="veh_57" type="car" depart="178.2" from="478475143" to="115505225" />
  <trip id="veh_2103" type="car" depart="179.8" from="401685146" to="13798307#1" />
  <trip id="veh_3929" type="car" depart="180.1" from="-27195187#3" to="13797498" />
  <trip id="veh_1666" type="car" depart="180.5" from="401685146" to="125556487" />
  <trip id="veh_58" type="car" depart="181.0" from="97122627" to="13798307#0" />
  <trip id="veh_3094" type="car" depart="182.7" from="115505226" to="-1457864036" />
  <trip id="veh_5384" type="car" depart="183.1" from="13798311#1" to="-27184811#1" />
  <trip id="veh_2104" type="car" depart="183.8" from="32321957" to="13797495" />
  <trip id="veh_1176" type="car" depart="184.3" from="466495275" to="1457864036" />
  <trip id="veh_3930" type="car" depart="185.1" from="43216026" to="13798311#1" />
  <trip id="veh_59" type="car" depart="185.4" from="473440889" to="467782354#3" />
  <trip id="veh_3095" type="car" depart="186.5" from="467782354#0" to="1457864036" />
  <trip id="veh_60" type="car" depart="188.0" from="150888046" to="13798307#0" />
  <trip id="veh_3931" type="car" depart="188.8" from="1248839127#0" to="515410724#2" />
  <trip id="veh_2105" type="car" depart="188.9" from="401685146" to="467782354#1" />
  <trip id="veh_5001" type="car" depart="189.2" from="1077838538" to="-1248839127#0" />
  <trip id="veh_1667" type="car" depart="189.6" from="401685146" to="150887967" />
  <trip id="veh_1177" type="car" depart="190.2" from="1431145262#0" to="401685145" />
  <trip id="veh_3096" type="car" depart="191.1" from="115505255" to="1457864036" />
  <trip id="veh_61" type="car" depart="191.7" from="150926457" to="13798307#1" />
  <trip id="veh_3932" type="car" depart="191.8" from="-48017210#17" to="-52754549" />
  <trip id="veh_2106" type="car" depart="193.5" from="-1457864036" to="13798307#1" />
  <trip id="veh_5002" type="car" depart="193.6" from="47035943" to="48017210#17" />
  <trip id="veh_3097" type="car" depart="194.0" from="-47035940" to="401685146" />
  <trip id="veh_5385" type="car" depart="194.6" from="13797498" to="27184811#1" />
  <trip id="veh_62" type="car" depart="194.7" from="385760758" to="1077838537" />
  <trip id="veh_63" type="car" depart="196.6" from="466495196" to="13797495" />
  <trip id="veh_1668" type="car" depart="196.9" from="401685146" to="113815195" />
  <trip id="veh_3933" type="car" depart="197.1" from="48017210#17" to="-52754549" />
  <trip id="veh_2107" type="car" depart="197.4" from="-1457864036" to="467782354#3" />
  <trip id="veh_4821" type="car" depart="197.8" from="115505248" to="515410724#2" />
  <trip id="veh_1178" type="car" depart="198.1" from="313965530#1" to="1457864036" />
  <trip id="veh_64" type="car" depart="199.3" from="478475143" to="115505226" />
  <trip id="veh_3098" type="car" depart="199.6" from="115505225" to="401685145" />
  <trip id="veh_2860" type="car" depart="199.9" from="466495198" to="150926454" />
  <trip id="veh_5386" type="car" depart="199.9" from="320581596#1" to="-115505244#1" />
  <trip id="veh_3934" type="car" depart="201.7" from="43216026" to="1077838538" />
  <trip id="veh_2108" type="car" depart="201.7" from="32321958" to="115505255" />
  <trip id="veh_65" type="car" depart="203.5" from="113815195" to="1077838537" />
  <trip id="veh_3935" type="car" depart="203.6" from="-48017210#14" to="13797498" />
  <trip id="veh_5003" type="car" depart="203.7" from="115505257" to="-48017210#5" />
  <trip id="veh_3099" type="car" depart="204.3" from="13798307#1" to="1457864036" />
  <trip id="veh_1179" type="car" depart="204.4" from="27195543#1" to="32321957" />
  <trip id="veh_66" type="car" depart="206.8" from="313965530#1" to="115505226" />
  <trip id="veh_2109" type="car" depart="206.9" from="401685146" to="13798307#1" />
  <trip id="veh_3100" type="car" depart="208.0" from="13798307#1" to="401685146" />
  <trip id="veh_3936" type="car" depart="208.2" from="27195187#2" to="115505198#0" />
  <trip id="veh_4822" type="car" depart="208.6" from="-225338535#1" to="13797498" />
  <trip id="veh_1669" type="car" depart="208.7" from="-1457864036" to="1457764832" />
  <trip id="veh_67" type="car" depart="208.7" from="150887967" to="13797495" />
  <trip id="veh_2110" type="car" depart="210.9" from="1457864036" to="115505225" />
  <trip id="veh_4768" type="car" depart="211.3" from="-27195187#0" to="115505223" />
  <trip id="veh_68" type="car" depart="211.9" from="128877276" to="115505255" />
  <trip id="veh_3101" type="car" depart="212.1" from="115505225" to="401685145" />
  <trip id="veh_3937" type="car" depart="212.9" from="115505245" to="-52754549" />
  <trip id="veh_1180" type="car" depart="213.2" from="1071762868" to="1457864036" />
  <trip id="veh_5387" type="car" depart="214.5" from="115505198#0" to="225338535#0" />
  <trip id="veh_5004" type="car" depart="215.0" from="13798311#1" to="115505241" />
  <trip id="veh_3102" type="car" depart="215.8" from="467782354#1" to="401685145" />
  <trip id="veh_69" type="car" depart="216.1" from="1180739479" to="466495198" />
  <trip id="veh_1670" type="car" depart="216.2" from="32321957" to="30504996" />
  <trip id="veh_2111" type="car" depart="216.5" from="401685145" to="115505255" />
  <trip id="veh_3938" type="car" depart="217.2" from="515410724#0" to="-52754549" />
  <trip id="veh_1181" type="car" depart="217.5" from="150888047" to="401685146" />
  <trip id="veh_2861" type="car" depart="217.5" from="13798307#1" to="-385760758" />
  <trip id="veh_70" type="car" depart="218.3" from="8367461" to="467782354#0" />
  <trip id="veh_3103" type="car" depart="220.1" from="466495198" to="32321958" />
  <trip id="veh_2112" type="car" depart="221.3" from="32321958" to="115505225" />