<?xml version='1.0' encoding='utf-8'?>
<routes>
  <vType id="car" vClass="passenger" length="4.5" maxSpeed="50.0" accel="2.6" decel="4.5" sigma="0.5" jmTimegapMinor="1.5" jmDriveAfterYellowTime="1.0" lcStrategic="1.0" lcCooperative="1.0" speedFactor="normc(1.0,0.1,0.8,1.2)" />
  <vType id="emergency" vClass="emergency" length="6.5" maxSpeed="38.89" accel="3.0" decel="5.0" sigma="0.0" speedFactor="1.0" jmDriveAfterRedTime="3" jmIgnoreKeepClearTime="3" color="1,0,0" />
  <trip id="veh_1" type="car" depart="0.0" from="-27195187#3" to="113815194" departLane="best" fromTaz="snv_syd" toTaz="e18_vest" />
  <trip id="veh_237" type="car" depart="0.0" from="-27195187#3" to="13797030" departLane="best" fromTaz="snv_syd" toTaz="ring3_nord" />
  <trip id="veh_394" type="car" depart="0.0" from="-27195187#3" to="-1014336997" departLane="best" fromTaz="snv_syd" toTaz="odd_nansens_vest" />
  <trip id="veh_411" type="car" depart="0.0" from="-27195187#3" to="27194983" departLane="best" fromTaz="snv_syd" toTaz="snv_east" />
  <trip id="veh_421" type="car" depart="0.0" from="-27195187#3" to="52975954" departLane="best" fromTaz="snv_syd" toTaz="martin_linges_sydost" />
  <trip id="veh_527" type="car" depart="0.0" from="-53141119" to="362382740" departLane="best" fromTaz="bbv_west" toTaz="e18_ost" />
  <trip id="veh_529" type="car" depart="0.0" from="-53141119" to="13797030" departLane="best" fromTaz="bbv_west" toTaz="ring3_nord" />
  <trip id="veh_531" type="car" depart="0.0" from="-53141119" to="-1014336997" departLane="best" fromTaz="bbv_west" toTaz="odd_nansens_vest" />
  <trip id="veh_533" type="car" depart="0.0" from="-53141119" to="27194983" departLane="best" fromTaz="bbv_west" toTaz="snv_east" />
  <trip id="veh_597" type="car" depart="0.0" from="-53141119" to="52975954" departLane="best" fromTaz="bbv_west" toTaz="martin_linges_sydost" />
  <trip id="veh_672" type="car" depart="0.0" from="1071762868" to="53141119" departLane="best" fromTaz="e18_vest" toTaz="bbv_west" />
  <trip id="veh_801" type="car" depart="0.0" from="1071762868" to="27194983" departLane="best" fromTaz="e18_vest" toTaz="snv_east" />
  <trip id="veh_979" type="car" depart="0.0" from="1071762868" to="-27184811#3" departLane="best" fromTaz="e18_vest" toTaz="rolfsbukt_syd" />
  <trip id="veh_997" type="car" depart="0.0" from="13797031" to="27195187#2" departLane="best" fromTaz="e18_ost" toTaz="snv_syd" />
  <trip id="veh_1054" type="car" depart="0.0" from="13797031" to="32321957" departLane="best" fromTaz="e18_ost" toTaz="wideroe_nordvest" />
  <trip id="veh_1197" type="car" depart="0.0" from="13797031" to="52975954" departLane="best" fromTaz="e18_ost" toTaz="martin_linges_sydost" />
  <trip id="veh_1322" type="car" depart="0.0" from="13797031" to="-27184811#3" departLane="best" fromTaz="e18_ost" toTaz="rolfsbukt_syd" />
  <trip id="veh_1406" type="car" depart="0.0" from="131600897" to="-1014336997" departLane="best" fromTaz="ring3_nord" toTaz="odd_nansens_vest" />
  <trip id="veh_1424" type="car" depart="0.0" from="131600897" to="52975954" departLane="best" fromTaz="ring3_nord" toTaz="martin_linges_sydost" />
  <trip id="veh_1485" type="car" depart="0.0" from="466495271#0" to="27195187#2" departLane="best" fromTaz="snv_nordost" toTaz="snv_syd" />
  <trip id="veh_1530" type="car" depart="0.0" from="466495271#0" to="-1014336997" departLane="best" fromTaz="snv_nordost" toTaz="odd_nansens_vest" />
  <trip id="veh_1541" type="car" depart="0.0" from="466495265#0" to="52975954" departLane="best" fromTaz="snv_nordost" toTaz="martin_linges_sydost" />
  <trip id="veh_1690" type="car" depart="0.0" from="32321958" to="53141119" departLane="best" fromTaz="wideroe_nordvest" toTaz="bbv_west" />
  <trip id="veh_1876" type="car" depart="0.0" from="32321958" to="13797030" departLane="best" fromTaz="wideroe_nordvest" toTaz="ring3_nord" />
  <trip id="veh_1913" type="car" depart="0.0" from="32321958" to="313965530#1" departLane="best" fromTaz="wideroe_nordvest" toTaz="snv_nordost" />
  <trip id="veh_2017" type="car" depart="0.0" from="32321958" to="52975954" departLane="best" fromTaz="wideroe_nordvest" toTaz="martin_linges_sydost" />
  <trip id="veh_2291" type="car" depart="0.0" from="-53158894" to="27195187#2" departLane="best" fromTaz="odd_nansens_vest" toTaz="snv_syd" />
  <trip id="veh_2298" type="car" depart="0.0" from="-53158894" to="313965530#1" departLane="best" fromTaz="odd_nansens_vest" toTaz="snv_nordost" />
  <trip id="veh_2299" type="car" depart="0.0" from="-53158894" to="52975954" departLane="best" fromTaz="odd_nansens_vest" toTaz="martin_linges_sydost" />
  <trip id="veh_2302" type="car" depart="0.0" from="-27194983" to="53141119" departLane="best" fromTaz="snv_east" toTaz="bbv_west" />
  <trip id="veh_2317" type="car" depart="0.0" from="-27194983" to="32321957" departLane="best" fromTaz="snv_east" toTaz="wideroe_nordvest" />
  <trip id="veh_2321" type="car" depart="0.0" from="-27194983" to="52975954" departLane="best" fromTaz="snv_east" toTaz="martin_linges_sydost" />
  <trip id="veh_2325" type="car" depart="0.0" from="-27194983" to="-27184811#3" departLane="best" fromTaz="snv_east" toTaz="rolfsbukt_syd" />
  <trip id="veh_2365" type="car" depart="0.0" from="-52975954" to="313965530#1" departLane="best" fromTaz="martin_linges_sydost" toTaz="snv_nordost" />
  <trip id="veh_2368" type="car" depart="0.0" from="-52975954" to="32321957" departLane="best" fromTaz="martin_linges_sydost" toTaz="wideroe_nordvest" />
  <trip id="veh_2377" type="car" depart="0.0" from="-52975954" to="-1014336997" departLane="best" fromTaz="martin_linges_sydost" toTaz="odd_nansens_vest" />
  <trip id="veh_2385" type="car" depart="0.0" from="27184811#3" to="27195187#2" departLane="best" fromTaz="rolfsbukt_syd" toTaz="snv_syd" />
  <trip id="veh_2407" type="car" depart="0.0" from="27184811#3" to="113815194" departLane="best" fromTaz="rolfsbukt_syd" toTaz="e18_vest" />
  <trip id="veh_2453" type="car" depart="0.0" from="27184811#3" to="362382740" departLane="best" fromTaz="rolfsbukt_syd" toTaz="e18_ost" />
  <trip id="veh_2494" type="car" depart="0.0" from="27184811#3" to="13797030" departLane="best" fromTaz="rolfsbukt_syd" toTaz="ring3_nord" />
  <trip id="veh_2512" type="car" depart="0.0" from="27184811#3" to="313965530#1" departLane="best" fromTaz="rolfsbukt_syd" toTaz="snv_nordost" />
  <trip id="veh_2558" type="car" depart="0.0" from="27184811#3" to="27194983" departLane="best" fromTaz="rolfsbukt_syd" toTaz="snv_east" />
  <trip id="veh_127" type="car" depart="0.1" from="-27195187#3" to="362382740" departLane="best" fromTaz="snv_syd" toTaz="e18_ost" />
  <trip id="veh_1582" type="car" depart="0.4" from="32321958" to="27195187#2" departLane="best" fromTaz="wideroe_nordvest" toTaz="snv_syd" />
  <trip id="veh_1691" type="car" depart="0.4" from="32321958" to="113815194" departLane="best" fromTaz="wideroe_nordvest" toTaz="e18_vest" />
  <trip id="veh_520" type="car" depart="3.8" from="-53141119" to="27195187#2" departLane="best" fromTaz="bbv_west" toTaz="snv_syd" />
  <trip id="veh_1956" type="car" depart="3.8" from="32321958" to="27194983" departLane="best" fromTaz="wideroe_nordvest" toTaz="snv_east" />
  <trip id="veh_1166" type="car" depart="4.0" from="13797031" to="27194983" departLane="best" fromTaz="e18_ost" toTaz="snv_east" />
  <trip id="veh_509" type="car" depart="5.8" from="-27195187#3" to="-27184811#3" departLane="best" fromTaz="snv_syd" toTaz="rolfsbukt_syd" />
  <trip id="veh_673" type="car" depart="6.6" from="1071762868" to="32321957" departLane="best" fromTaz="e18_vest" toTaz="wideroe_nordvest" />
  <trip id="veh_1790" type="car" depart="6.9" from="32321958" to="362382740" departLane="best" fromTaz="wideroe_nordvest" toTaz="e18_ost" />
  <trip id="veh_837" type="car" depart="7.1" from="1071762868" to="52975954" departLane="best" fromTaz="e18_vest" toTaz="martin_linges_sydost" />
  <trip id="veh_284" type="car" depart="8.8" from="-27195187#3" to="313965530#1" departLane="best" fromTaz="snv_syd" toTaz="snv_nordost" />
  <trip id="veh_1362" type="car" depart="8.9" from="131600897" to="32321957" departLane="best" fromTaz="ring3_nord" toTaz="wideroe_nordvest" />
  <trip id="veh_2018" type="car" depart="11.3" from="32321958" to="52975954" departLane="best" fromTaz="wideroe_nordvest" toTaz="martin_linges_sydost" />
  <trip id="veh_315" type="car" depart="12.8" from="-27195187#3" to="32321957" departLane="best" fromTaz="snv_syd" toTaz="wideroe_nordvest" />
  <trip id="veh_2259" type="car" depart="13.3" from="32321958" to="-27184811#3" departLane="best" fromTaz="wideroe_nordvest" toTaz="rolfsbukt_syd" />
  <trip id="veh_2308" type="car" depart="16.2" from="-27194983" to="362382740" departLane="best" fromTaz="snv_east" toTaz="e18_ost" />
  <trip id="veh_609" type="car" depart="17.0" from="1071762868" to="27195187#2" departLane="best" fromTaz="e18_vest" toTaz="snv_syd" />
  <trip id="veh_838" type="car" depart="21.8" from="1071762868" to="52975954" departLane="best" fromTaz="e18_vest" toTaz="martin_linges_sydost" />
  <trip id="veh_1198" type="car" depart="23.6" from="13797031" to="52975954" departLane="best" fromTaz="e18_ost" toTaz="martin_linges_sydost" />
  <trip id="veh_2379" type="car" depart="24.6" from="-52975954" to="-27184811#3" departLane="best" fromTaz="martin_linges_sydost" toTaz="rolfsbukt_syd" />
  <trip id="veh_1338" type="car" depart="27.1" from="131600897" to="27195187#2" departLane="best" fromTaz="ring3_nord" toTaz="snv_syd" />
  <trip id="veh_525" type="car" depart="27.8" from="-53141119" to="113815194" departLane="best" fromTaz="bbv_west" toTaz="e18_vest" />
  <trip id="veh_1583" type="car" depart="28.1" from="32321958" to="27195187#2" departLane="best" fromTaz="wideroe_nordvest" toTaz="snv_syd" />
  <trip id="veh_2562" type="car" depart="28.3" from="27184811#3" to="52975954" departLane="best" fromTaz="rolfsbukt_syd" toTaz="martin_linges_sydost" />
  <trip id="veh_2347" type="car" depart="30.1" from="-52975954" to="362382740" departLane="best" fromTaz="martin_linges_sydost" toTaz="e18_ost" />
  <trip id="veh_128" type="car" depart="30.8" from="-27195187#3" to="362382740" departLane="best" fromTaz="snv_syd" toTaz="e18_ost" />
  <trip id="veh_1156" type="car" depart="31.0" from="13797031" to="-1014336997" departLane="best" fromTaz="e18_ost" toTaz="odd_nansens_vest" />
  <trip id="veh_2" type="car" depart="31.6" from="-27195187#3" to="113815194" departLane="best" fromTaz="snv_syd" toTaz="e18_vest" />
  <trip id="veh_2019" type="car" depart="31.7" from="32321958" to="52975954" departLane="best" fromTaz="wideroe_nordvest" toTaz="martin_linges_sydost" />
  <trip id="veh_1501" type="car" depart="31.9" from="466495271#0" to="32321957" departLane="best" fromTaz="snv_nordost" toTaz="wideroe_nordvest" />
  <trip id="veh_2523" type="car" depart="35.8" from="27184811#3" to="32321957" departLane="best" fromTaz="rolfsbukt_syd" toTaz="wideroe_nordvest" />
  <trip id="veh_1692" type="car" depart="38.1" from="32321958" to="113815194" departLane="best" fromTaz="wideroe_nordvest" toTaz="e18_vest" />
  <trip id="veh_1055" type="car" depart="38.2" from="13797031" to="32321957" departLane="best" fromTaz="e18_ost" toTaz="wideroe_nordvest" />
  <trip id="veh_674" type="car" depart="38.4" from="1071762868" to="32321957" departLane="best" fromTaz="e18_vest" toTaz="wideroe_nordvest" />
  <trip id="veh_530" type="car" depart="39.1" from="-53141119" to="313965530#1" departLane="best" fromTaz="bbv_west" toTaz="snv_nordost" />
  <trip id="veh_790" type="car" depart="40.2" from="1071762868" to="-1014336997" departLane="best" fromTaz="e18_vest" toTaz="odd_nansens_vest" />
  <trip id="veh_1791" type="car" depart="42.4" from="32321958" to="362382740" departLane="best" fromTaz="wideroe_nordvest" toTaz="e18_ost" />
  <trip id="veh_610" type="car" depart="46.4" from="1071762868" to="27195187#2" departLane="best" fromTaz="e18_vest" toTaz="snv_syd" />
  <trip id="veh_2020" type="car" depart="48.2" from="32321958" to="52975954" departLane="best" fromTaz="wideroe_nordvest" toTaz="martin_linges_sydost" />
  <trip id="veh_3" type="car" depart="49.1" from="-27195187#3" to="113815194" departLane="best" fromTaz="snv_syd" toTaz="e18_vest" />
  <trip id="veh_422" type="car" depart="50.9" from="-27195187#3" to="52975954" departLane="best" fromTaz="snv_syd" toTaz="martin_linges_sydost" />
  <trip id="veh_998" type="car" depart="51.2" from="13797031" to="27195187#2" departLane="best" fromTaz="e18_ost" toTaz="snv_syd" />
  <trip id="veh_839" type="car" depart="51.4" from="1071762868" to="52975954" departLane="best" fromTaz="e18_vest" toTaz="martin_linges_sydost" />
  <trip id="veh_316" type="car" depart="53.9" from="-27195187#3" to="32321957" departLane="best" fromTaz="snv_syd" toTaz="wideroe_nordvest" />
  <trip id="veh_1577" type="car" depart="54.1" from="466495271#0" to="-27184811#3" departLane="best" fromTaz="snv_nordost" toTaz="rolfsbukt_syd" />
  <trip id="veh_2326" type="car" depart="54.6" from="-52975954" to="27195187#2" departLane="best" fromTaz="martin_linges_sydost" toTaz="snv_syd" />
  <trip id="veh_1938" type="car" depart="54.7" from="32321958" to="-1014336997" departLane="best" fromTaz="wideroe_nordvest" toTaz="odd_nansens_vest" />
  <trip id="veh_2408" type="car" depart="55.1" from="27184811#3" to="113815194" departLane="best" fromTaz="rolfsbukt_syd" toTaz="e18_vest" />
  <trip id="veh_129" type="car" depart="59.4" from="-27195187#3" to="362382740" departLane="best" fromTaz="snv_syd" toTaz="e18_ost" />
  <trip id="veh_1410" type="car" depart="60.1" from="131600897" to="27194983" departLane="best" fromTaz="ring3_nord" toTaz="snv_east" />
  <trip id="veh_534" type="car" depart="60.5" from="-53141119" to="27194983" departLane="best" fromTaz="bbv_west" toTaz="snv_east" />
  <trip id="veh_1199" type="car" depart="60.8" from="13797031" to="52975954" departLane="best" fromTaz="e18_ost" toTaz="martin_linges_sydost" />
  <trip id="veh_675" type="car" depart="62.6" from="1071762868" to="32321957" departLane="best" fromTaz="e18_vest" toTaz="wideroe_nordvest" />
  <trip id="veh_1363" type="car" depart="63.0" from="131600897" to="32321957" departLane="best" fromTaz="ring3_nord" toTaz="wideroe_nordvest" />
  <trip id="veh_2021" type="car" depart="63.3" from="32321958" to="52975954" departLane="best" fromTaz="wideroe_nordvest" toTaz="martin_linges_sydost" />
  <trip id="veh_1056" type="car" depart="65.1" from="13797031" to="32321957" departLane="best" fromTaz="e18_ost" toTaz="wideroe_nordvest" />
  <trip id="veh_1532" type="car" depart="67.2" from="466495265#0" to="27194983" departLane="best" fromTaz="snv_nordost" toTaz="snv_east" />
  <trip id="veh_2333" type="car" depart="68.5" from="-52975954" to="113815194" departLane="best" fromTaz="martin_linges_sydost" toTaz="e18_vest" />
  <trip id="veh_1693" type="car" depart="68.8" from="32321958" to="113815194" departLane="best" fromTaz="wideroe_nordvest" toTaz="e18_vest" />
  <trip id="veh_1957" type="car" depart="69.0" from="32321958" to="27194983" departLane="best" fromTaz="wideroe_nordvest" toTaz="snv_east" />
  <trip id="veh_1425" type="car" depart="72.9" from="131600897" to="52975954" departLane="best" fromTaz="ring3_nord" toTaz="martin_linges_sydost" />
  <trip id="veh_1584" type="car" depart="76.1" from="32321958" to="27195187#2" departLane="best" fromTaz="wideroe_nordvest" toTaz="snv_syd" />
  <trip id="veh_2022" type="car" depart="76.1" from="32321958" to="52975954" departLane="best" fromTaz="wideroe_nordvest" toTaz="martin_linges_sydost" />
  <trip id="veh_1542" type="car" depart="77.9" from="466495271#0" to="52975954" departLane="best" fromTaz="snv_nordost" toTaz="martin_linges_sydost" />
  <trip id="veh_840" type="car" depart="80.4" from="1071762868" to="52975954" departLane="best" fromTaz="e18_vest" toTaz="martin_linges_sydost" />
  <trip id="veh_4" type="car" depart="81.1" from="-27195187#3" to="113815194" departLane="best" fromTaz="snv_syd" toTaz="e18_vest" />
  <trip id="veh_317" type="car" depart="81.3" from="-27195187#3" to="32321957" departLane="best" fromTaz="snv_syd" toTaz="wideroe_nordvest" />
  <trip id="veh_423" type="car" depart="84.4" from="-27195187#3" to="52975954" departLane="best" fromTaz="snv_syd" toTaz="martin_linges_sydost" />
  <trip id="veh_1792" type="car" depart="84.9" from="32321958" to="362382740" departLane="best" fromTaz="wideroe_nordvest" toTaz="e18_ost" />
  <trip id="veh_676" type="car" depart="87.6" from="1071762868" to="32321957" departLane="best" fromTaz="e18_vest" toTaz="wideroe_nordvest" />
  <trip id="veh_1200" type="car" depart="89.7" from="13797031" to="52975954" departLane="best" fromTaz="e18_ost" toTaz="martin_linges_sydost" />
  <trip id="veh_2023" type="car" depart="90.8" from="32321958" to="52975954" departLane="best" fromTaz="wideroe_nordvest" toTaz="martin_linges_sydost" />
  <trip id="veh_2524" type="car" depart="91.6" from="27184811#3" to="32321957" departLane="best" fromTaz="rolfsbukt_syd" toTaz="wideroe_nordvest" />
  <trip id="veh_2292" type="car" depart="93.2" from="-53158894" to="113815194" departLane="best" fromTaz="odd_nansens_vest" toTaz="e18_vest" />
  <trip id="veh_841" type="car" depart="95.3" from="1071762868" to="52975954" departLane="best" fromTaz="e18_vest" toTaz="martin_linges_sydost" />
  <trip id="veh_238" type="car" depart="95.4" from="-27195187#3" to="13797030" departLane="best" fromTaz="snv_syd" toTaz="ring3_nord" />
  <trip id="veh_802" type="car" depart="95.4" from="1071762868" to="27194983" departLane="best" fromTaz="e18_vest" toTaz="snv_east" />
  <trip id="veh_611" type="car" depart="97.5" from="1071762868" to="27195187#2" departLane="best" fromTaz="e18_vest" toTaz="snv_syd" />
  <trip id="veh_2260" type="car" depart="98.2" from="32321958" to="-27184811#3" departLane="best" fromTaz="wideroe_nordvest" toTaz="rolfsbukt_syd" />
  <trip id="veh_1057" type="car" depart="99.1" from="13797031" to="32321957" departLane="best" fromTaz="e18_ost" toTaz="wideroe_nordvest" />
  <trip id="veh_130" type="car" depart="100.5" from="-27195187#3" to="362382740" departLane="best" fromTaz="snv_syd" toTaz="e18_ost" />
  <trip id="veh_1585" type="car" depart="100.8" from="32321958" to="27195187#2" departLane="best" fromTaz="wideroe_nordvest" toTaz="snv_syd" />
  <trip id="veh_1958" type="car" depart="101.1" from="32321958" to="27194983" departLane="best" fromTaz="wideroe_nordvest" toTaz="snv_east" />
  <trip id="veh_2454" type="car" depart="102.8" from="27184811#3" to="362382740" departLane="best" fromTaz="rolfsbukt_syd" toTaz="e18_ost" />
  <trip id="veh_1694" type="car" depart="104.2" from="32321958" to="113815194" departLane="best" fromTaz="wideroe_nordvest" toTaz="e18_vest" />
  <trip id="veh_2024" type="car" depart="107.1" from="32321958" to="52975954" departLane="best" fromTaz="wideroe_nordvest" toTaz="martin_linges_sydost" />
  <trip id="veh_2359" type="car" depart="110.5" from="-52975954" to="13797030" departLane="best" fromTaz="martin_linges_sydost" toTaz="ring3_nord" />
  <trip id="veh_1793" type="car" depart="113.3" from="32321958" to="362382740" departLane="best" fromTaz="wideroe_nordvest" toTaz="e18_ost" />
  <trip id="veh_1877" type="car" depart="113.6" from="32321958" to="13797030" departLane="best" fromTaz="wideroe_nordvest" toTaz="ring3_nord" />
  <trip id="veh_535" type="car" depart="115.6" from="-53141119" to="27194983" departLane="best" fromTaz="bbv_west" toTaz="snv_east" />
  <trip id="veh_2025" type="car" depart="116.5" from="32321958" to="52975954" departLane="best" fromTaz="wideroe_nordvest" toTaz="martin_linges_sydost" />
  <trip id="veh_5" type="car" depart="118.0" from="-27195187#3" to="113815194" departLane="best" fromTaz="snv_syd" toTaz="e18_vest" />
  <trip id="veh_1201" type="car" depart="119.6" from="13797031" to="52975954" departLane="best" fromTaz="e18_ost" toTaz="martin_linges_sydost" />
  <trip id="veh_842" type="car" depart="121.0" from="1071762868" to="52975954" departLane="best" fromTaz="e18_vest" toTaz="martin_linges_sydost" />
  <trip id="veh_424" type="car" depart="121.5" from="-27195187#3" to="52975954" departLane="best" fromTaz="snv_syd" toTaz="martin_linges_sydost" />
  <trip id="veh_999" type="car" depart="122.3" from="13797031" to="27195187#2" departLane="best" fromTaz="e18_ost" toTaz="snv_syd" />
  <trip id="veh_1426" type="car" depart="122.5" from="131600897" to="52975954" departLane="best" fromTaz="ring3_nord" toTaz="martin_linges_sydost" />
  <trip id="veh_285" type="car" depart="124.3" from="-27195187#3" to="313965530#1" departLane="best" fromTaz="snv_syd" toTaz="snv_nordost" />
  <trip id="veh_677" type="car" depart="125.8" from="1071762868" to="32321957" departLane="best" fromTaz="e18_vest" toTaz="wideroe_nordvest" />
  <trip id="veh_2026" type="car" depart="130.4" from="32321958" to="52975954" departLane="best" fromTaz="wideroe_nordvest" toTaz="martin_linges_sydost" />
  <trip id="veh_131" type="car" depart="131.9" from="-27195187#3" to="362382740" departLane="best" fromTaz="snv_syd" toTaz="e18_ost" />
  <trip id="veh_1914" type="car" depart="132.5" from="32321958" to="313965530#1" departLane="best" fromTaz="wideroe_nordvest" toTaz="snv_nordost" />
  <trip id="veh_239" type="car" depart="133.0" from="-27195187#3" to="13797030" departLane="best" fromTaz="snv_syd" toTaz="ring3_nord" />
  <trip id="veh_1586" type="car" depart="135.0" from="32321958" to="27195187#2" departLane="best" fromTaz="wideroe_nordvest" toTaz="snv_syd" />
  <trip id="veh_1167" type="car" depart="136.5" from="13797031" to="27194983" departLane="best" fromTaz="e18_ost" toTaz="snv_east" />
  <trip id="veh_2552" type="car" depart="137.7" from="27184811#3" to="-1014336997" departLane="best" fromTaz="rolfsbukt_syd" toTaz="odd_nansens_vest" />
  <trip id="veh_1058" type="car" depart="137.9" from="13797031" to="32321957" departLane="best" fromTaz="e18_ost" toTaz="wideroe_nordvest" />
  <trip id="veh_1339" type="car" depart="140.0" from="131600897" to="27195187#2" departLane="best" fromTaz="ring3_nord" toTaz="snv_syd" />
  <trip id="veh_6" type="car" depart="142.0" from="-27195187#3" to="113815194" departLane="best" fromTaz="snv_syd" toTaz="e18_vest" />
  <trip id="veh_678" type="car" depart="146.3" from="1071762868" to="32321957" departLane="best" fromTaz="e18_vest" toTaz="wideroe_nordvest" />
  <trip id="veh_1502" type="car" depart="146.6" from="466495271#0" to="32321957" departLane="best" fromTaz="snv_nordost" toTaz="wideroe_nordvest" />
  <trip id="veh_2027" type="car" depart="148.5" from="32321958" to="52975954" departLane="best" fromTaz="wideroe_nordvest" toTaz="martin_linges_sydost" />
  <trip id="veh_1478" type="car" depart="148.6" from="131600897" to="-27184811#3" departLane="best" fromTaz="ring3_nord" toTaz="rolfsbukt_syd" />
  <trip id="veh_1695" type="car" depart="149.2" from="32321958" to="113815194" departLane="best" fromTaz="wideroe_nordvest" toTaz="e18_vest" />
  <trip id="veh_1202" type="car" depart="149.4" from="13797031" to="52975954" departLane="best" fromTaz="e18_ost" toTaz="martin_linges_sydost" />
  <trip id="veh_318" type="car" depart="149.5" from="-27195187#3" to="32321957" departLane="best" fromTaz="snv_syd" toTaz="wideroe_nordvest" />
  <trip id="veh_843" type="car" depart="151.5" from="1071762868" to="52975954" departLane="best" fromTaz="e18_vest" toTaz="martin_linges_sydost" />
  <trip id="veh_132" type="car" depart="159.5" from="-27195187#3" to="362382740" departLane="best" fromTaz="snv_syd" toTaz="e18_ost" />
  <trip id="veh_1939" type="car" depart="161.9" from="32321958" to="-1014336997" departLane="best" fromTaz="wideroe_nordvest" toTaz="odd_nansens_vest" />
  <trip id="veh_1587" type="car" depart="162.8" from="32321958" to="27195187#2" departLane="best" fromTaz="wideroe_nordvest" toTaz="snv_syd" />
  <trip id="veh_425" type="car" depart="163.7" from="-27195187#3" to="52975954" departLane="best" fromTaz="snv_syd" toTaz="martin_linges_sydost" />
  <trip id="veh_612" type="car" depart="164.0" from="1071762868" to="27195187#2" departLane="best" fromTaz="e18_vest" toTaz="snv_syd" />
  <trip id="veh_2028" type="car" depart="166.0" from="32321958" to="52975954" departLane="best" fromTaz="wideroe_nordvest" toTaz="martin_linges_sydost" />
  <trip id="veh_1364" type="car" depart="170.2" from="131600897" to="32321957" departLane="best" fromTaz="ring3_nord" toTaz="wideroe_nordvest" />
  <trip id="veh_395" type="car" depart="170.6" from="-27195187#3" to="-1014336997" departLane="best" fromTaz="snv_syd" toTaz="odd_nansens_vest" />
  <trip id="veh_1878" type="car" depart="171.1" from="32321958" to="13797030" departLane="best" fromTaz="wideroe_nordvest" toTaz="ring3_nord" />
  <trip id="veh_1059" type="car" depart="171.9" from="13797031" to="32321957" departLane="best" fromTaz="e18_ost" toTaz="wideroe_nordvest" />
  <trip id="veh_1794" type="car" depart="172.1" from="32321958" to="362382740" departLane="best" fromTaz="wideroe_nordvest" toTaz="e18_ost" />
  <trip id="veh_2300" type="car" depart="173.0" from="-27194983" to="27195187#2" departLane="best" fromTaz="snv_east" toTaz="snv_syd" />
  <trip id="veh_2386" type="car" depart="173.2" from="27184811#3" to="27195187#2" departLane="best" fromTaz="rolfsbukt_syd" toTaz="snv_syd" />
  <trip id="veh_2409" type="car" depart="173.9" from="27184811#3" to="113815194" departLane="best" fromTaz="rolfsbukt_syd" toTaz="e18_vest" />
  <trip id="veh_536" type="car" depart="174.1" from="-53141119" to="27194983" departLane="best" fromTaz="bbv_west" toTaz="snv_east" />
  <trip id="veh_1696" type="car" depart="174.3" from="32321958" to="113815194" departLane="best" fromTaz="wideroe_nordvest" toTaz="e18_vest" />
  <trip id="veh_2029" type="car" depart="174.8" from="32321958" to="52975954" departLane="best" fromTaz="wideroe_nordvest" toTaz="martin_linges_sydost" />
  <trip id="veh_7" type="car" depart="175.9" from="-27195187#3" to="113815194" departLane="best" fromTaz="snv_syd" toTaz="e18_vest" />
  <trip id="veh_2303" type="car" depart="176.8" from="-27194983" to="113815194" departLane="best" fromTaz="snv_east" toTaz="e18_vest" />
  <trip id="veh_980" type="car" depart="176.8" from="1071762868" to="-27184811#3" departLane="best" fromTaz="e18_vest" toTaz="rolfsbukt_syd" />
  <trip id="veh_1203" type="car" depart="177.0" from="13797031" to="52975954" departLane="best" fromTaz="e18_ost" toTaz="martin_linges_sydost" />
  <trip id="veh_679" type="car" depart="180.3" from="1071762868" to="32321957" departLane="best" fromTaz="e18_vest" toTaz="wideroe_nordvest" />
  <trip id="veh_2455" type="car" depart="184.5" from="27184811#3" to="362382740" departLane="best" fromTaz="rolfsbukt_syd" toTaz="e18_ost" />
  <trip id="veh_844" type="car" depart="185.0" from="1071762868" to="52975954" departLane="best" fromTaz="e18_vest" toTaz="martin_linges_sydost" />
  <trip id="veh_1000" type="car" depart="190.2" from="13797031" to="27195187#2" departLane="best" fromTaz="e18_ost" toTaz="snv_syd" />
  <trip id="veh_319" type="car" depart="190.2" from="-27195187#3" to="32321957" departLane="best" fromTaz="snv_syd" toTaz="wideroe_nordvest" />
  <trip id="veh_2030" type="car" depart="192.4" from="32321958" to="52975954" departLane="best" fromTaz="wideroe_nordvest" toTaz="martin_linges_sydost" />
  <trip id="veh_1959" type="car" depart="193.9" from="32321958" to="27194983" departLane="best" fromTaz="wideroe_nordvest" toTaz="snv_east" />
  <trip id="veh_133" type="car" depart="195.7" from="-27195187#3" to="362382740" departLane="best" fromTaz="snv_syd" toTaz="e18_ost" />
  <trip id="veh_8" type="car" depart="197.3" from="-27195187#3" to="113815194" departLane="best" fromTaz="snv_syd" toTaz="e18_vest" />
  <trip id="veh_1486" type="car" depart="197.4" from="466495265#0" to="27195187#2" departLane="best" fromTaz="snv_nordost" toTaz="snv_syd" />
  <trip id="veh_845" type="car" depart="197.6" from="1071762868" to="52975954" departLane="best" fromTaz="e18_vest" toTaz="martin_linges_sydost" />
  <trip id="veh_426" type="car" depart="198.4" from="-27195187#3" to="52975954" departLane="best" fromTaz="snv_syd" toTaz="martin_linges_sydost" />
  <trip id="veh_1204" type="car" depart="201.8" from="13797031" to="52975954" departLane="best" fromTaz="e18_ost" toTaz="martin_linges_sydost" />
  <trip id="veh_803" type="car" depart="203.3" from="1071762868" to="27194983" departLane="best" fromTaz="e18_vest" toTaz="snv_east" />
  <trip id="veh_1543" type="car" depart="204.3" from="466495271#0" to="52975954" departLane="best" fromTaz="snv_nordost" toTaz="martin_linges_sydost" />
  <trip id="veh_1060" type="car" depart="204.6" from="13797031" to="32321957" departLane="best" fromTaz="e18_ost" toTaz="wideroe_nordvest" />
  <trip id="veh_1427" type="car" depart="205.1" from="131600897" to="52975954" departLane="best" fromTaz="ring3_nord" toTaz="martin_linges_sydost" />
  <trip id="veh_680" type="car" depart="209.6" from="1071762868" to="32321957" departLane="best" fromTaz="e18_vest" toTaz="wideroe_nordvest" />
  <trip id="veh_1588" type="car" depart="209.9" from="32321958" to="27195187#2" departLane="best" fromTaz="wideroe_nordvest" toTaz="snv_syd" />
  <trip id="veh_2031" type="car" depart="209.9" from="32321958" to="52975954" departLane="best" fromTaz="wideroe_nordvest" toTaz="martin_linges_sydost" />
  <trip id="veh_2495" type="car" depart="210.1" from="27184811#3" to="13797030" departLane="best" fromTaz="rolfsbukt_syd" toTaz="ring3_nord" />
  <trip id="veh_2261" type="car" depart="214.5" from="32321958" to="-27184811#3" departLane="best" fromTaz="wideroe_nordvest" toTaz="rolfsbukt_syd" />
  <trip id="veh_1795" type="car" depart="215.0" from="32321958" to="362382740" departLane="best" fromTaz="wideroe_nordvest" toTaz="e18_ost" />
  <trip id="veh_2032" type="car" depart="223.6" from="32321958" to="52975954" departLane="best" fromTaz="wideroe_nordvest" toTaz="martin_linges_sydost" />
  <trip id="veh_2348" type="car" depart="226.1" from="-52975954" to="362382740" departLane="best" fromTaz="martin_linges_sydost" toTaz="e18_ost" />