<?xml version='1.0' encoding='utf-8'?>
<routes>
  <vType id="car" vClass="passenger" length="4.5" maxSpeed="50.0" accel="2.6" decel="4.5" sigma="0.5" jmTimegapMinor="1.5" />
  <trip id="veh_850" type="car" depart="0.0" from="473440889" to="32321958" />
  <trip id="veh_1215" type="car" depart="0.0" from="401685146" to="338682320" />
  <trip id="veh_1525" type="car" depart="0.0" from="32321957" to="-47035940" />
  <trip id="veh_2105" type="car" depart="0.0" from="-47035940" to="968251938" />
  <trip id="veh_3520" type="car" depart="0.0" from="27195187#0" to="-225338535#0" />
  <trip id="veh_3555" type="car" depart="0.0" from="115505217" to="115505257" />
  <trip id="veh_3680" type="car" depart="0.0" from="320581596#1" to="48017210#15" />
  <trip id="veh_0" type="car" depart="0.4" from="115505247" to="467782354#3" />
  <trip id="veh_2255" type="car" depart="1.0" from="13798307#0" to="32321958" />
  <trip id="veh_2870" type="car" depart="1.1" from="48017210#15" to="115505198#2" />
  <trip id="veh_3965" type="car" depart="1.8" from="13798311#1" to="-225338535#1" />
  <trip id="veh_1" type="car" depart="3.7" from="125556485" to="115505225" />
  <trip id="veh_2871" type="car" depart="4.8" from="-48017210#14" to="1077838538" />
  <trip id="veh_2256" type="car" depart="5.3" from="-47035940" to="32321957" />
  <trip id="veh_1526" type="car" depart="5.8" from="-1457864036" to="466495198" />
  <trip id="veh_851" type="car" depart="8.0" from="473440889" to="401685146" />
  <trip id="veh_2" type="car" depart="9.1" from="473440889" to="1077838537" />
  <trip id="veh_2872" type="car" depart="10.3" from="43216026" to="115505198#2" />
  <trip id="veh_1527" type="car" depart="10.6" from="401685146" to="467782354#0" />
  <trip id="veh_3" type="car" depart="12.9" from="150887967" to="-47035940" />
  <trip id="veh_2257" type="car" depart="13.3" from="115505255" to="1457864036" />
  <trip id="veh_1216" type="car" depart="14.9" from="32321958" to="466204277#1" />
  <trip id="veh_3681" type="car" depart="15.0" from="1077838538" to="515410724#0" />
  <trip id="veh_4" type="car" depart="15.9" from="125556487" to="466495198" />
  <trip id="veh_1528" type="car" depart="17.0" from="401685146" to="467782354#0" />
  <trip id="veh_2873" type="car" depart="17.0" from="1077838551#1" to="1077840622" />
  <trip id="veh_2258" type="car" depart="17.4" from="13798307#1" to="1457864036" />
  <trip id="veh_3966" type="car" depart="17.4" from="1077838538" to="-225338535#1" />
  <trip id="veh_5" type="car" depart="21.4" from="697648978" to="115505226" />
  <trip id="veh_3556" type="car" depart="21.6" from="115505248" to="115505198#0" />
  <trip id="veh_852" type="car" depart="22.4" from="467248352-AddedOffRampEdge" to="-1457864036" />
  <trip id="veh_2874" type="car" depart="23.0" from="48017210#4" to="115505207" />
  <trip id="veh_1529" type="car" depart="23.1" from="-1457864036" to="13797495" />
  <trip id="veh_2259" type="car" depart="23.8" from="115505225" to="401685146" />
  <trip id="veh_3682" type="car" depart="24.7" from="320581596#1" to="115505241" />
  <trip id="veh_1217" type="car" depart="25.9" from="32321957" to="473440889" />
  <trip id="veh_6" type="car" depart="26.0" from="473440889" to="13798307#0" />
  <trip id="veh_3967" type="car" depart="26.4" from="115505198#2" to="115505244#1" />
  <trip id="veh_2875" type="car" depart="28.6" from="-48017210#10" to="47035943" />
  <trip id="veh_7" type="car" depart="28.9" from="968251937" to="115505255" />
  <trip id="veh_2260" type="car" depart="29.2" from="115505225" to="401685145" />
  <trip id="veh_2106" type="car" depart="29.4" from="13797495" to="466134866#1" />
  <trip id="veh_853" type="car" depart="31.6" from="466495201#0" to="401685146" />
  <trip id="veh_1530" type="car" depart="32.6" from="-1457864036" to="115505255" />
  <trip id="veh_2876" type="car" depart="33.0" from="43216026" to="969642449" />
  <trip id="veh_1218" type="car" depart="34.0" from="32321958" to="8367461" />
  <trip id="veh_8" type="car" depart="34.7" from="113815195" to="115505225" />
  <trip id="veh_3683" type="car" depart="35.2" from="115505198#2" to="-48017210#10" />
  <trip id="veh_2261" type="car" depart="36.1" from="115505226" to="401685145" />
  <trip id="veh_854" type="car" depart="36.8" from="113815195" to="32321958" />
  <trip id="veh_1531" type="car" depart="38.3" from="32321957" to="467782354#0" />
  <trip id="veh_9" type="car" depart="38.6" from="150888055" to="115505255" />
  <trip id="veh_2877" type="car" depart="38.6" from="48017210#4" to="47035943" />
  <trip id="veh_10" type="car" depart="41.5" from="150888055" to="1077838537" />
  <trip id="veh_2262" type="car" depart="41.5" from="13798307#1" to="401685146" />
  <trip id="veh_1532" type="car" depart="41.9" from="32321958" to="13798307#0" />
  <trip id="veh_2878" type="car" depart="44.9" from="-1248839127#1" to="115505257" />
  <trip id="veh_11" type="car" depart="45.6" from="466495275" to="13797495" />
  <trip id="veh_2263" type="car" depart="46.0" from="-47035940" to="-1457864036" />
  <trip id="veh_855" type="car" depart="47.2" from="971292799" to="1457864036" />
  <trip id="veh_3968" type="car" depart="47.3" from="515410724#2" to="27184811#1" />
  <trip id="veh_1219" type="car" depart="47.5" from="401685146" to="125556485" />
  <trip id="veh_3684" type="car" depart="48.1" from="115505207" to="200498484" />
  <trip id="veh_2879" type="car" depart="48.7" from="-1248839127#0" to="320581596#1" />
  <trip id="veh_1533" type="car" depart="49.3" from="401685146" to="-47035940" />
  <trip id="veh_2264" type="car" depart="51.2" from="467782354#3" to="32321957" />
  <trip id="veh_12" type="car" depart="51.7" from="97122627" to="115505255" />
  <trip id="veh_2107" type="car" depart="53.6" from="1077838537" to="467248352" />
  <trip id="veh_1220" type="car" depart="55.7" from="-1457864036" to="150887967" />
  <trip id="veh_1534" type="car" depart="55.8" from="401685145" to="115505226" />
  <trip id="veh_13" type="car" depart="55.8" from="466134866#0" to="466495198" />
  <trip id="veh_2880" type="car" depart="56.4" from="-27195187#3" to="1077838538" />
  <trip id="veh_856" type="car" depart="56.6" from="1059461004" to="-1457864036" />
  <trip id="veh_3969" type="car" depart="57.7" from="47035943" to="115505244#1" />
  <trip id="veh_14" type="car" depart="58.3" from="205946628" to="1077838537" />
  <trip id="veh_2265" type="car" depart="59.5" from="-47035940" to="32321958" />
  <trip id="veh_3557" type="car" depart="59.6" from="225338535#0" to="1077840622" />
  <trip id="veh_2881" type="car" depart="60.4" from="277705937#0" to="47035943" />
  <trip id="veh_1535" type="car" depart="60.7" from="32321958" to="466495198" />
  <trip id="veh_3685" type="car" depart="61.8" from="115505207" to="48017210#15" />
  <trip id="veh_2266" type="car" depart="63.2" from="467782354#1" to="-1457864036" />
  <trip id="veh_15" type="car" depart="63.7" from="971292799" to="467782354#0" />
  <trip id="veh_2882" type="car" depart="65.3" from="-27195187#0" to="115505207" />
  <trip id="veh_857" type="car" depart="67.4" from="466134866#0" to="32321957" />
  <trip id="veh_1536" type="car" depart="67.5" from="401685146" to="115505225" />
  <trip id="veh_1221" type="car" depart="68.2" from="32321957" to="13797031" />
  <trip id="veh_16" type="car" depart="68.7" from="150926454" to="467782354#0" />
  <trip id="veh_3970" type="car" depart="69.3" from="115505198#1" to="115505248" />
  <trip id="veh_17" type="car" depart="71.2" from="466495196" to="-47035940" />
  <trip id="veh_2267" type="car" depart="71.8" from="467782354#1" to="32321958" />
  <trip id="veh_2883" type="car" depart="72.9" from="-48017210#12" to="969642449" />
  <trip id="veh_1537" type="car" depart="73.7" from="401685146" to="467782354#1" />
  <trip id="veh_2268" type="car" depart="75.3" from="467782354#3" to="32321957" />
  <trip id="veh_2108" type="car" depart="75.8" from="467782354#3" to="150888046" />
  <trip id="veh_858" type="car" depart="76.3" from="97122637" to="32321958" />
  <trip id="veh_18" type="car" depart="76.6" from="150888042" to="1077838537" />
  <trip id="veh_3686" type="car" depart="77.3" from="115505207" to="1248839127#1" />
  <trip id="veh_2884" type="car" depart="77.8" from="48017210#4" to="115505198#1" />
  <trip id="veh_1538" type="car" depart="80.2" from="-1457864036" to="466495198" />
  <trip id="veh_19" type="car" depart="81.4" from="466495275" to="13798307#0" />
  <trip id="veh_3558" type="car" depart="82.1" from="-225338535#0" to="515410724#2" />
  <trip id="veh_2885" type="car" depart="82.8" from="515410680#1" to="515410724#2" />
  <trip id="veh_2269" type="car" depart="83.4" from="467782354#0" to="-1457864036" />
  <trip id="veh_3971" type="car" depart="83.5" from="115505198#1" to="27184811#0" />
  <trip id="veh_20" type="car" depart="84.1" from="150926454" to="115505225" />
  <trip id="veh_1222" type="car" depart="84.4" from="-1457864036" to="150888055" />
  <trip id="veh_3687" type="car" depart="85.7" from="13798311#1" to="1077838551#1" />
  <trip id="veh_2270" type="car" depart="87.9" from="13798307#1" to="32321958" />
  <trip id="veh_2886" type="car" depart="88.0" from="1248839127#0" to="969642449" />
  <trip id="veh_1539" type="car" depart="88.3" from="1457864036" to="1077838537" />
  <trip id="veh_21" type="car" depart="88.6" from="1180739476" to="467782354#1" />
  <trip id="veh_2109" type="car" depart="89.1" from="115505255" to="1180739476" />
  <trip id="veh_859" type="car" depart="89.7" from="115505219" to="-1457864036" />
  <trip id="veh_1223" type="car" depart="90.6" from="32321958" to="1059461022" />
  <trip id="veh_1540" type="car" depart="91.4" from="401685145" to="467782354#0" />
  <trip id="veh_22" type="car" depart="92.6" from="466495201#0" to="467782354#0" />
  <trip id="veh_3521" type="car" depart="92.9" from="1077838551#1" to="225338535#1" />
  <trip id="veh_2271" type="car" depart="93.4" from="467782354#3" to="-1457864036" />
  <trip id="veh_2887" type="car" depart="93.6" from="115505241" to="969642449" />
  <trip id="veh_23" type="car" depart="97.8" from="467248352-AddedOnRampEdge" to="467782354#3" />
  <trip id="veh_860" type="car" depart="98.8" from="338682318" to="-1457864036" />
  <trip id="veh_1541" type="car" depart="98.9" from="401685145" to="1077838537" />
  <trip id="veh_2272" type="car" depart="99.7" from="-47035940" to="32321958" />
  <trip id="veh_2888" type="car" depart="99.8" from="-48017210#12" to="320581596#1" />
  <trip id="veh_3688" type="car" depart="100.2" from="13795988" to="48017210#17" />
  <trip id="veh_24" type="car" depart="101.0" from="466134866#1" to="13798307#0" />
  <trip id="veh_3972" type="car" depart="102.1" from="1077840622" to="115505259" />
  <trip id="veh_1542" type="car" depart="104.8" from="401685146" to="467782354#3" />
  <trip id="veh_2889" type="car" depart="104.9" from="-48017210#3" to="969642449" />
  <trip id="veh_25" type="car" depart="105.3" from="697648978" to="115505226" />
  <trip id="veh_861" type="car" depart="105.6" from="1457764832" to="401685145" />
  <trip id="veh_1224" type="car" depart="106.1" from="401685145" to="466495271#0" />
  <trip id="veh_2273" type="car" depart="107.0" from="13798307#1" to="-1457864036" />
  <trip id="veh_26" type="car" depart="110.6" from="313965530#1" to="115505226" />
  <trip id="veh_2890" type="car" depart="110.9" from="48017210#11" to="320581596#1" />
  <trip id="veh_3559" type="car" depart="111.1" from="-27184811#3" to="13798311#1" />
  <trip id="veh_2274" type="car" depart="111.5" from="13797495" to="32321957" />
  <trip id="veh_1543" type="car" depart="113.2" from="32321957" to="115505226" />
  <trip id="veh_3689" type="car" depart="114.0" from="115505257" to="48017210#6" />
  <trip id="veh_1225" type="car" depart="115.0" from="401685145" to="466204274" />
  <trip id="veh_27" type="car" depart="115.2" from="150888047" to="13798307#0" />
  <trip id="veh_2891" type="car" depart="115.8" from="277705937#0" to="47035943" />
  <trip id="veh_2110" type="car" depart="117.4" from="115505226" to="150888033" />
  <trip id="veh_1544" type="car" depart="117.6" from="401685146" to="466495198" />
  <trip id="veh_2275" type="car" depart="117.7" from="13798307#0" to="-1457864036" />
  <trip id="veh_28" type="car" depart="118.0" from="1180739479" to="467782354#0" />
  <trip id="veh_3973" type="car" depart="118.5" from="320581596#1" to="-225338535#0" />
  <trip id="veh_2892" type="car" depart="120.8" from="115505254" to="1077838538" />
  <trip id="veh_862" type="car" depart="121.2" from="115505219" to="401685145" />
  <trip id="veh_1545" type="car" depart="122.8" from="1457864036" to="115505226" />
  <trip id="veh_2276" type="car" depart="123.4" from="467782354#1" to="-1457864036" />
  <trip id="veh_29" type="car" depart="123.8" from="150888047" to="115505226" />
  <trip id="veh_2893" type="car" depart="125.8" from="1248839127#1" to="115505207" />
  <trip id="veh_3690" type="car" depart="126.6" from="115505198#0" to="27195187#2" />
  <trip id="veh_3974" type="car" depart="127.4" from="969642449" to="115505259" />
  <trip id="veh_30" type="car" depart="127.5" from="30504996" to="467782354#1" />
  <trip id="veh_2277" type="car" depart="128.3" from="13797495" to="-1457864036" />
  <trip id="veh_1226" type="car" depart="129.2" from="32321958" to="1063373267#0" />
  <trip id="veh_863" type="car" depart="130.1" from="362382740" to="1457864036" />
  <trip id="veh_1546" type="car" depart="130.8" from="32321957" to="115505226" />
  <trip id="veh_31" type="car" depart="131.2" from="13797031" to="115505225" />
  <trip id="veh_2894" type="car" depart="133.7" from="-48017210#10" to="13795988" />
  <trip id="veh_32" type="car" depart="134.9" from="697648978" to="466495198" />
  <trip id="veh_1547" type="car" depart="135.1" from="401685146" to="467782354#0" />
  <trip id="veh_864" type="car" depart="135.8" from="466495275" to="401685145" />
  <trip id="veh_3691" type="car" depart="135.8" from="320581596#1" to="43216026" />
  <trip id="veh_2278" type="car" depart="135.8" from="115505255" to="401685146" />
  <trip id="veh_33" type="car" depart="139.2" from="92221929" to="13798307#0" />
  <trip id="veh_2279" type="car" depart="139.4" from="466495198" to="-1457864036" />
  <trip id="veh_2895" type="car" depart="140.1" from="115505245" to="115505198#0" />
  <trip id="veh_1227" type="car" depart="140.1" from="32321958" to="1059461022" />
  <trip id="veh_2111" type="car" depart="140.8" from="13797495" to="385760757" />
  <trip id="veh_3975" type="car" depart="141.3" from="-52754549" to="225338534" />
  <trip id="veh_2896" type="car" depart="142.6" from="515410680#1" to="115505198#1" />
  <trip id="veh_1548" type="car" depart="144.1" from="401685145" to="13798307#1" />
  <trip id="veh_34" type="car" depart="145.0" from="315957532" to="13797495" />
  <trip id="veh_865" type="car" depart="145.9" from="113815191" to="401685145" />
  <trip id="veh_35" type="car" depart="147.5" from="-150888042" to="466495198" />
  <trip id="veh_1228" type="car" depart="147.9" from="32321957" to="1180739476" />
  <trip id="veh_2280" type="car" depart="148.0" from="467782354#1" to="1457864036" />
  <trip id="veh_1549" type="car" depart="149.5" from="-1457864036" to="115505255" />
  <trip id="veh_3560" type="car" depart="149.5" from="-27184811#1" to="115505257" />
  <trip id="veh_2897" type="car" depart="149.6" from="-48017210#14" to="-52754549" />
  <trip id="veh_2281" type="car" depart="151.5" from="13798307#0" to="-1457864036" />
  <trip id="veh_3692" type="car" depart="151.8" from="47035943" to="-48017210#5" />
  <trip id="veh_36" type="car" depart="152.5" from="313965526" to="1077838537" />
  <trip id="veh_2898" type="car" depart="153.5" from="48017210#6" to="13797498" />
  <trip id="veh_1550" type="car" depart="155.8" from="32321957" to="1077838537" />
  <trip id="veh_37" type="car" depart="155.8" from="1059461022" to="467782354#1" />
  <trip id="veh_866" type="car" depart="158.0" from="150926433" to="32321957" />
  <trip id="veh_2282" type="car" depart="158.5" from="13797495" to="32321958" />
  <trip id="veh_3976" type="car" depart="159.8" from="115505257" to="115505244#0" />
  <trip id="veh_2899" type="car" depart="159.8" from="115505254" to="320581596#1" />
  <trip id="veh_1551" type="car" depart="160.3" from="401685145" to="13798307#1" />
  <trip id="veh_38" type="car" depart="160.7" from="466495196" to="13798307#0" />
  <trip id="veh_2283" type="car" depart="162.4" from="467782354#1" to="32321958" />
  <trip id="veh_39" type="car" depart="164.9" from="466134866#1" to="466495198" />
  <trip id="veh_3693" type="car" depart="165.7" from="115505198#0" to="27195187#0" />
  <trip id="veh_1229" type="car" depart="165.9" from="32321958" to="478475143" />
  <trip id="veh_2900" type="car" depart="165.9" from="48017210#3" to="1077838538" />
  <trip id="veh_40" type="car" depart="168.8" from="478475143" to="-47035940" />
  <trip id="veh_1552" type="car" depart="169.3" from="32321957" to="115505225" />
  <trip id="veh_867" type="car" depart="169.4" from="466495265#0" to="32321957" />
  <trip id="veh_2112" type="car" depart="170.5" from="115505255" to="1059461004" />
  <trip id="veh_2284" type="car" depart="170.6" from="115505225" to="-1457864036" />
  <trip id="veh_3977" type="car" depart="170.8" from="969642449" to="225338535#1" />
  <trip id="veh_2901" type="car" depart="172.5" from="27195187#0" to="115505198#1" />
  <trip id="veh_3694" type="car" depart="173.1" from="515410724#2" to="-1248839127#1" />
  <trip id="veh_41" type="car" depart="174.1" from="915918523" to="467782354#1" />
  <trip id="veh_1553" type="car" depart="174.4" from="1457864036" to="1077838537" />
  <trip id="veh_2285" type="car" depart="174.5" from="467782354#3" to="401685145" />
  <trip id="veh_1230" type="car" depart="175.7" from="401685146" to="473440889" />
  <trip id="veh_3561" type="car" depart="176.4" from="-225338535#0" to="320581596#1" />
  <trip id="veh_2902" type="car" depart="177.7" from="200498484" to="1077838538" />
  <trip id="veh_42" type="car" depart="178.9" from="1431145262#0" to="467782354#1" />
  <trip id="veh_1554" type="car" depart="179.2" from="-1457864036" to="115505226" />
  <trip id="veh_868" type="car" depart="180.3" from="466134866#0" to="401685145" />
  <trip id="veh_2286" type="car" depart="180.5" from="13798307#0" to="-1457864036" />
  <trip id="veh_2903" type="car" depart="181.3" from="-48017210#1" to="115505257" />
  <trip id="veh_43" type="car" depart="181.7" from="150888042" to="13798307#0" />
  <trip id="veh_3978" type="car" depart="183.6" from="115505207" to="-27184811#1" />
  <trip id="veh_1231" type="car" depart="184.2" from="32321957" to="150888044" />
  <trip id="veh_44" type="car" depart="185.5" from="113815195" to="467782354#3" />
  <trip id="veh_1555" type="car" depart="185.5" from="32321958" to="13797495" />
  <trip id="veh_869" type="car" depart="185.9" from="125556485" to="32321957" />
  <trip id="veh_2113" type="car" depart="187.1" from="1077838537" to="113815205" />
  <trip id="veh_2904" type="car" depart="187.6" from="-1248839127#0" to="115505257" />
  <trip id="veh_2287" type="car" depart="188.3" from="467782354#1" to="32321957" />
  <trip id="veh_3695" type="car" depart="188.4" from="115505257" to="-48017210#10" />
  <trip id="veh_45" type="car" depart="191.5" from="13797031" to="466495198" />
  <trip id="veh_1556" type="car" depart="192.8" from="32321957" to="467782354#3" />
  <trip id="veh_2288" type="car" depart="193.2" from="13798307#1" to="-1457864036" />
  <trip id="veh_2905" type="car" depart="193.3" from="1077838551#1" to="47035943" />
  <trip id="veh_46" type="car" depart="195.5" from="466204277#2" to="1077838537" />
  <trip id="veh_1232" type="car" depart="195.6" from="-1457864036" to="30504996" />
  <trip id="veh_2289" type="car" depart="197.4" from="-47035940" to="32321957" />
  <trip id="veh_870" type="car" depart="198.3" from="466495265#0" to="401685146" />
  <trip id="veh_3979" type="car" depart="198.6" from="13795988" to="115505248" />
  <trip id="veh_1557" type="car" depart="198.9" from="401685145" to="467782354#0" />
  <trip id="veh_47" type="car" depart="200.0" from="150888044" to="467782354#1" />
  <trip id="veh_2906" type="car" depart="200.2" from="515410724#0" to="320581596#1" />
  <trip id="veh_48" type="car" depart="203.3" from="113815194" to="115505225" />
  <trip id="veh_1558" type="car" depart="204.3" from="32321957" to="13798307#0" />
  <trip id="veh_3696" type="car" depart="205.3" from="-52754549" to="200498484" />
  <trip id="veh_3562" type="car" depart="205.6" from="27184811#1" to="1077840622" />
  <trip id="veh_2290" type="car" depart="205.9" from="-47035940" to="32321958" />
  <trip id="veh_2907" type="car" depart="206.2" from="48017210#6" to="515410724#2" />
  <trip id="veh_49" type="car" depart="207.2" from="1059461022" to="466495198" />
  <trip id="veh_2291" type="car" depart="209.4" from="467782354#1" to="401685146" />
  <trip id="veh_1233" type="car" depart="209.5" from="32321958" to="1059461004" />
  <trip id="veh_1559" type="car" depart="209.8" from="32321957" to="115505226" />
  <trip id="veh_871" type="car" depart="210.0" from="150887967" to="-1457864036" />
  <trip id="veh_2908" type="car" depart="210.8" from="200498484" to="115505198#1" />
  <trip id="veh_50" type="car" depart="212.9" from="467248352-AddedOffRampEdge" to="-47035940" />
  <trip id="veh_3697" type="car" depart="213.7" from="515410724#2" to="-48017210#10" />
  <trip id="veh_2909" type="car" depart="215.3" from="515410724#0" to="13798311#1" />
  <trip id="veh_3980" type="car" depart="216.1" from="-52754549" to="115505259" />
  <trip id="veh_51" type="car" depart="216.3" from="466204274-AddedOnRampEdge" to="-47035940" />
  <trip id="veh_872" type="car" depart="216.4" from="205946628" to="401685145" />
  <trip id="veh_2292" type="car" depart="216.7" from="467782354#1" to="401685145" />
  <trip id="veh_1234" type="car" depart="217.5" from="-1457864036" to="338682322" />
  <trip id="veh_1560" type="car" depart="218.3" from="401685146" to="467782354#3" />
  <trip id="veh_52" type="car" depart="219.2" from="150926454" to="115505255" />
  <trip id="veh_2910" type="car" depart="220.3" from="27195187#2" to="13795988" />
  <trip id="veh_2293" type="car" depart="221.2" from="467782354#0" to="1457864036" />
  <trip id="veh_2114" type="car" depart="222.6" from="466495198" to="466204277#2-AddedOnRampEdge" />
  <trip id="veh_53" type="car" depart="223.8" from="128877276" to="467782354#0" />
  <trip id="veh_1561" type="car" depart="224.0" from="32321957" to="13797495" />
  <trip id="veh_3563" type="car" depart="225.0" from="27184811#0" to="13798311#1" />
  <trip id="veh_3698" type="car" depart="225.8" from="1077840622" to="515410680#1" />
  <trip id="veh_873" type="car" depart="226.7" from="113815205" to="401685146" />
  <trip id="veh_3522" type="car" depart="227.4" from="-48017210#1" to="115505217" />
  <trip id="veh_2911" type="car" depart="227.9" from="-43216026" to="115505198#2" />
  <trip id="veh_1562" type="car" depart="228.3" from="401685146" to="13797495" />
  <trip id="veh_3981" type="car" depart="228.4" from="1077838538" to="-115505244#1" />
  <trip id="veh_1235" type="car" depart="229.4" from="401685146" to="971292799" />
  <trip id="veh_2294" type="car" depart="229.8" from="-47035940" to="401685146" />
  <trip id="veh_54" type="car" depart="229.8" from="466495265#0" to="467782354#3" />
  <trip id="veh_2912" type="car" depart="232.7" from="-48017210#17" to="515410724#2" />
  <trip id="veh_2295" type="car" depart="232.9" from="467782354#1" to="-1457864036" />
  <trip id="veh_55" type="car" depart="232.9" from="466495196" to="466495198" />
  <trip id="veh_2115" type="car" depart="234.3" from="466495198" to="150888065" />
  <trip id="veh_874" type="car" depart="234.8" from="466204277#1" to="32321958" />
  <trip id="veh_1563" type="car" depart="237.3" from="32321958" to="13798307#1" />
  <trip id="veh_56" type="car" depart="237.9" from="-1180739476" to="467782354#1" />
  <trip id="veh_2913" type="car" depart="239.1" from="48017210#13" to="1077838538" />
  <trip id="veh_2296" type="car" depart="239.9" from="467782354#0" to="-1457864036" />
  <trip id="veh_57" type="car" depart="241.3" from="478475143" to="115505225" />
  <trip id="veh_1564" type="car" depart="241.5" from="32321957" to="13798307#1" />
  <trip id="veh_2914" type="car" depart="242.5" from="48017210#1" to="515410724#2" />
  <trip id="veh_3699" type="car" depart="243.6" from="969642449" to="43216026" />
  <trip id="veh_1236" type="car" depart="244.6" from="1457864036" to="466495275" />
  <trip id="veh_2297" type="car" depart="244.9" from="467782354#1" to="1457864036" />
  <trip id="veh_58" type="car" depart="245.1" from="97122627" to="13798307#0" />
  <trip id="veh_3982" type="car" depart="246.1" from="320581596#1" to="115505248" />
  <trip id="veh_875" type="car" depart="247.4" from="150888050" to="401685145" />
  <trip id="veh_1565" type="car" depart="248.5" from="1457864036" to="467782354#1" />
  <trip id="veh_2915" type="car" depart="248.9" from="-277705937#1" to="-52754549" />
  <trip id="veh_2298" type="car" depart="250.0" from="467782354#1" to="-1457864036" />
  <trip id="veh_3700" type="car" depart="250.7" from="515410724#2" to="-48017210#5" />
  <trip id="veh_59" type="car" depart="251.1" from="473440889" to="467782354#3" />
  <trip id="veh_1237" type="car" depart="252.2" from="1457864036" to="150888042" />
  <trip id="veh_2916" type="car" depart="254.5" from="-48017210#10" to="115505257" />
  <trip id="veh_60" type="car" depart="254.6" from="150888046" to="13798307#0" />
  <trip id="veh_1566" type="car" depart="254.9" from="32321957" to="115505225" />
  <trip id="veh_3983" type="car" depart="256.6" from="115505198#0" to="115505244#1" />
  <trip id="veh_2299" type="car" depart="259.0" from="1077838537" to="32321958" />
  <trip id="veh_876" type="car" depart="259.3" from="466495275" to="401685145" />
  <trip id="veh_2917" type="car" depart="259.4" from="-27195187#3" to="115505198#2" />
  <trip id="veh_61" type="car" depart="259.6" from="150926457" to="13798307#1" />
  <trip id="veh_3564" type="car" depart="261.5" from="-27184811#3" to="1077838538" />
  <trip id="veh_3701" type="car" depart="261.9" from="1077840622" to="-48017210#1" />
  <trip id="veh_1567" type="car" depart="262.1" from="1457864036" to="115505255" />
  <trip id="veh_62" type="car" depart="263.6" from="385760758" to="1077838537" />
  <trip id="veh_2300" type="car" depart="263.8" from="467782354#0" to="-1457864036" />
  <trip id="veh_2116" type="car" depart="264.7" from="115505255" to="-385760758" />
  <trip id="veh_63" type="car" depart="266.2" from="466495196" to="13797495" />
  <trip id="veh_2918" type="car" depart="266.4" from="277705937#0" to="13797498" />
  <trip id="veh_1568" type="car" depart="267.8" from="401685146" to="1077838537" />
  <trip id="veh_877" type="car" depart="268.8" from="125556487" to="1457864036" />
  <trip id="veh_64" type="car" depart="269.8" from="478475143" to="115505226" />
  <trip id="veh_2301" type="car" depart="270.4" from="1077838537" to="-1457864036" />
  <trip id="veh_1238" type="car" depart="270.4" from="32321958" to="915918523" />
  <trip id="veh_3984" type="car" depart="270.8" from="115505198#1" to="225338535#0" />
  <trip id="veh_2919" type="car" depart="271.6" from="277705937#0" to="515410724#2" />
  <trip id="veh_1569" type="car" depart="274.0" from="-1457864036" to="466495198" />
  <trip id="veh_2302" type="car" depart="275.1" from="467782354#0" to="1457864036" />
  <trip id="veh_65" type="car" depart="275.5" from="113815195" to="1077838537" />
  <trip id="veh_2920" type="car" depart="276.1" from="48017210#17" to="13798311#1" />
  <trip id="veh_1239" type="car" depart="277.4" from="32321958" to="466134866#1-AddedOnRampEdge" />
  <trip id="veh_878" type="car" depart="278.5" from="8367454" to="32321958" />
  <trip id="veh_2303" type="car" depart="279.4" from="115505226" to="32321958" />
  <trip id="veh_1570" type="car" depart="279.8" from="401685145" to="467782354#0" />
  <trip id="veh_66" type="car" depart="280.1" from="313965530#1" to="115505226" />
  <trip id="veh_3702" type="car" depart="281.4" from="320581596#1" to="-48017210#12" />
  <trip id="veh_3565" type="car" depart="281.6" from="-115505244#1" to="115505198#1" />
  <trip id="veh_2921" type="car" depart="282.2" from="48017210#11" to="320581596#1" />
  <trip id="veh_67" type="car" depart="282.7" from="150887967" to="13797495" />
  <trip id="veh_879" type="car" depart="284.7" from="466495201#0" to="401685146" />
  <trip id="veh_1571" type="car" depart="285.2" from="401685145" to="115505226" />
  <trip id="veh_2304" type="car" depart="286.3" from="467782354#3" to="401685146" />
  <trip id="veh_68" type="car" depart="286.9" from="128877276" to="115505255" />
  <trip id="veh_3985" type="car" depart="288.9" from="13795988" to="115505248" />
  <trip id="veh_2922" type="car" depart="289.4" from="48017210#17" to="320581596#1" />
  <trip id="veh_3703" type="car" depart="289.6" from="-52754549" to="48017210#1" />
  <trip id="veh_1240" type="car" depart="290.2" from="401685146" to="13797031" />
  <trip id="veh_2305" type="car" depart="292.3" from="1077838537" to="401685146" />
  <trip id="veh_69" type="car" depart="292.7" from="1180739479" to="466495198" />
  <trip id="veh_1572" type="car" depart="293.2" from="401685145" to="115505255" />
  <trip id="veh_2117" type="car" depart="294.4" from="115505255" to="8367461" />
  <trip id="veh_2923" type="car" depart="295.1" from="-48017210#14" to="1077840622" />
  <trip id="veh_70" type="car" depart="295.5" from="8367461" to="467782354#0" />
  <trip id="veh_3523" type="car" depart="296.2" from="115505245" to="-970292662" />
  <trip id="veh_1573" type="car" depart="298.1" from="401685145" to="13798307#1" />
  <trip id="veh_880" type="car" depart="298.4" from="473440889" to="401685145" />
  <trip id="veh_2306" type="car" depart="298.8" from="115505225" to="32321957" />