<?xml version='1.0' encoding='utf-8'?>
<routes>
  <vType id="car" vClass="passenger" length="4.5" maxSpeed="50.0" accel="2.6" decel="4.5" sigma="0.5" jmTimegapMinor="1.5" />
  <vType id="emergency" vClass="emergency" length="6.5" maxSpeed="38.89" accel="3.0" decel="5.0" sigma="0.0" speedFactor="1.0" jmDriveAfterRedTime="3" jmIgnoreKeepClearTime="3" color="1,0,0" />
  <trip id="veh_1" type="car" depart="0.0" from="515410724#0" to="313965530#1" departLane="best" fromTaz="snv_syd" toTaz="snv_nordost" />
  <trip id="veh_659" type="car" depart="0.0" from="515410724#0" to="52975954" departLane="best" fromTaz="snv_syd" toTaz="martin_linges_sydost" />
  <trip id="veh_796" type="car" depart="0.0" from="515410724#0" to="-27184811#3" departLane="best" fromTaz="snv_syd" toTaz="rolfsbukt_syd" />
  <trip id="veh_814" type="car" depart="0.0" from="-53141119" to="1077838551#1" departLane="best" fromTaz="bbv_west" toTaz="snv_syd" />
  <trip id="veh_831" type="car" depart="0.0" from="-53141119" to="-1014336997" departLane="best" fromTaz="bbv_west" toTaz="odd_nansens_vest" />
  <trip id="veh_956" type="car" depart="0.0" from="-53141119" to="52975954" departLane="best" fromTaz="bbv_west" toTaz="martin_linges_sydost" />
  <trip id="veh_975" type="car" depart="0.0" from="-53141119" to="-27184811#3" departLane="best" fromTaz="bbv_west" toTaz="rolfsbukt_syd" />
  <trip id="veh_1872" type="car" depart="0.0" from="466495271#0" to="52975954" departLane="best" fromTaz="snv_nordost" toTaz="martin_linges_sydost" />
  <trip id="veh_2505" type="car" depart="0.0" from="32321958" to="1077838551#1" departLane="best" fromTaz="wideroe_nordvest" toTaz="snv_syd" />
  <trip id="veh_3090" type="car" depart="0.0" from="32321958" to="-1014336997" departLane="best" fromTaz="wideroe_nordvest" toTaz="odd_nansens_vest" />
  <trip id="veh_3653" type="car" depart="0.0" from="-53158894" to="313965530#1" departLane="best" fromTaz="odd_nansens_vest" toTaz="snv_nordost" />
  <trip id="veh_3666" type="car" depart="0.0" from="-27194983" to="1077838551#1" departLane="best" fromTaz="snv_east" toTaz="snv_syd" />
  <trip id="veh_3668" type="car" depart="0.0" from="-27194983" to="53141119" departLane="best" fromTaz="snv_east" toTaz="bbv_west" />
  <trip id="veh_3669" type="car" depart="0.0" from="-27194983" to="313965530#1" departLane="best" fromTaz="snv_east" toTaz="snv_nordost" />
  <trip id="veh_3685" type="car" depart="0.0" from="-27194983" to="32321957" departLane="best" fromTaz="snv_east" toTaz="wideroe_nordvest" />
  <trip id="veh_3689" type="car" depart="0.0" from="-27194983" to="-1014336997" departLane="best" fromTaz="snv_east" toTaz="odd_nansens_vest" />
  <trip id="veh_3690" type="car" depart="0.0" from="-27194983" to="52975954" departLane="best" fromTaz="snv_east" toTaz="martin_linges_sydost" />
  <trip id="veh_3696" type="car" depart="0.0" from="-52975954" to="1077838551#1" departLane="best" fromTaz="martin_linges_sydost" toTaz="snv_syd" />
  <trip id="veh_3749" type="car" depart="0.0" from="-52975954" to="32321957" departLane="best" fromTaz="martin_linges_sydost" toTaz="wideroe_nordvest" />
  <trip id="veh_3814" type="car" depart="0.0" from="27184811#3" to="313965530#1" departLane="best" fromTaz="rolfsbukt_syd" toTaz="snv_nordost" />
  <trip id="veh_4033" type="car" depart="0.0" from="27184811#3" to="32321957" departLane="best" fromTaz="rolfsbukt_syd" toTaz="wideroe_nordvest" />
  <trip id="veh_4088" type="car" depart="0.0" from="27184811#3" to="-1014336997" departLane="best" fromTaz="rolfsbukt_syd" toTaz="odd_nansens_vest" />
  <trip id="veh_4106" type="car" depart="0.0" from="27184811#3" to="52975954" departLane="best" fromTaz="rolfsbukt_syd" toTaz="martin_linges_sydost" />
  <trip id="veh_3216" type="car" depart="0.4" from="32321958" to="52975954" departLane="best" fromTaz="wideroe_nordvest" toTaz="martin_linges_sydost" />
  <trip id="veh_1731" type="car" depart="0.5" from="466495265#0" to="27194983" departLane="best" fromTaz="snv_nordost" toTaz="snv_east" />
  <trip id="veh_1230" type="car" depart="1.9" from="466495265#0" to="32321957" departLane="best" fromTaz="snv_nordost" toTaz="wideroe_nordvest" />
  <trip id="veh_2679" type="car" depart="2.5" from="32321958" to="313965530#1" departLane="best" fromTaz="wideroe_nordvest" toTaz="snv_nordost" />
  <trip id="veh_493" type="car" depart="3.4" from="515410724#0" to="32321957" departLane="best" fromTaz="snv_syd" toTaz="wideroe_nordvest" />
  <trip id="veh_977" type="car" depart="4.1" from="466495265#0" to="1077838551#1" departLane="best" fromTaz="snv_nordost" toTaz="snv_syd" />
  <trip id="veh_1873" type="car" depart="5.1" from="466495271#0" to="52975954" departLane="best" fromTaz="snv_nordost" toTaz="martin_linges_sydost" />
  <trip id="veh_836" type="car" depart="5.3" from="-53141119" to="27194983" departLane="best" fromTaz="bbv_west" toTaz="snv_east" />
  <trip id="veh_2680" type="car" depart="7.4" from="32321958" to="313965530#1" departLane="best" fromTaz="wideroe_nordvest" toTaz="snv_nordost" />
  <trip id="veh_3217" type="car" depart="7.7" from="32321958" to="52975954" departLane="best" fromTaz="wideroe_nordvest" toTaz="martin_linges_sydost" />
  <trip id="veh_1231" type="car" depart="7.8" from="466495265#0" to="32321957" departLane="best" fromTaz="snv_nordost" toTaz="wideroe_nordvest" />
  <trip id="veh_2" type="car" depart="8.1" from="515410724#0" to="313965530#1" departLane="best" fromTaz="snv_syd" toTaz="snv_nordost" />
  <trip id="veh_3119" type="car" depart="8.9" from="32321958" to="27194983" departLane="best" fromTaz="wideroe_nordvest" toTaz="snv_east" />
  <trip id="veh_1688" type="car" depart="10.7" from="466495271#0" to="-1014336997" departLane="best" fromTaz="snv_nordost" toTaz="odd_nansens_vest" />
  <trip id="veh_3" type="car" depart="12.6" from="515410724#0" to="313965530#1" departLane="best" fromTaz="snv_syd" toTaz="snv_nordost" />
  <trip id="veh_3815" type="car" depart="12.6" from="27184811#3" to="313965530#1" departLane="best" fromTaz="rolfsbukt_syd" toTaz="snv_nordost" />
  <trip id="veh_3705" type="car" depart="12.8" from="-52975954" to="313965530#1" departLane="best" fromTaz="martin_linges_sydost" toTaz="snv_nordost" />
  <trip id="veh_1874" type="car" depart="12.9" from="466495271#0" to="52975954" departLane="best" fromTaz="snv_nordost" toTaz="martin_linges_sydost" />
  <trip id="veh_3771" type="car" depart="13.1" from="27184811#3" to="1077838551#1" departLane="best" fromTaz="rolfsbukt_syd" toTaz="snv_syd" />
  <trip id="veh_2432" type="car" depart="14.0" from="466495271#0" to="-27184811#3" departLane="best" fromTaz="snv_nordost" toTaz="rolfsbukt_syd" />
  <trip id="veh_1232" type="car" depart="14.9" from="466495271#0" to="32321957" departLane="best" fromTaz="snv_nordost" toTaz="wideroe_nordvest" />
  <trip id="veh_978" type="car" depart="15.7" from="466495271#0" to="1077838551#1" departLane="best" fromTaz="snv_nordost" toTaz="snv_syd" />
  <trip id="veh_616" type="car" depart="18.2" from="515410724#0" to="-1014336997" departLane="best" fromTaz="snv_syd" toTaz="odd_nansens_vest" />
  <trip id="veh_2681" type="car" depart="18.8" from="32321958" to="313965530#1" departLane="best" fromTaz="wideroe_nordvest" toTaz="snv_nordost" />
  <trip id="veh_3602" type="car" depart="19.0" from="32321958" to="-27184811#3" departLane="best" fromTaz="wideroe_nordvest" toTaz="rolfsbukt_syd" />
  <trip id="veh_1875" type="car" depart="20.1" from="466495265#0" to="52975954" departLane="best" fromTaz="snv_nordost" toTaz="martin_linges_sydost" />
  <trip id="veh_4" type="car" depart="20.8" from="515410724#0" to="313965530#1" departLane="best" fromTaz="snv_syd" toTaz="snv_nordost" />
  <trip id="veh_1732" type="car" depart="20.9" from="466495265#0" to="27194983" departLane="best" fromTaz="snv_nordost" toTaz="snv_east" />
  <trip id="veh_3218" type="car" depart="21.0" from="32321958" to="52975954" departLane="best" fromTaz="wideroe_nordvest" toTaz="martin_linges_sydost" />
  <trip id="veh_1233" type="car" depart="22.0" from="466495271#0" to="32321957" departLane="best" fromTaz="snv_nordost" toTaz="wideroe_nordvest" />
  <trip id="veh_2506" type="car" depart="23.5" from="32321958" to="1077838551#1" departLane="best" fromTaz="wideroe_nordvest" toTaz="snv_syd" />
  <trip id="veh_1876" type="car" depart="24.6" from="466495265#0" to="52975954" departLane="best" fromTaz="snv_nordost" toTaz="martin_linges_sydost" />
  <trip id="veh_2682" type="car" depart="25.9" from="32321958" to="313965530#1" departLane="best" fromTaz="wideroe_nordvest" toTaz="snv_nordost" />
  <trip id="veh_979" type="car" depart="26.4" from="466495271#0" to="1077838551#1" departLane="best" fromTaz="snv_nordost" toTaz="snv_syd" />
  <trip id="veh_660" type="car" depart="27.8" from="515410724#0" to="52975954" departLane="best" fromTaz="snv_syd" toTaz="martin_linges_sydost" />
  <trip id="veh_3816" type="car" depart="28.0" from="27184811#3" to="313965530#1" departLane="best" fromTaz="rolfsbukt_syd" toTaz="snv_nordost" />
  <trip id="veh_3120" type="car" depart="29.7" from="32321958" to="27194983" departLane="best" fromTaz="wideroe_nordvest" toTaz="snv_east" />
  <trip id="veh_1234" type="car" depart="30.1" from="466495271#0" to="32321957" departLane="best" fromTaz="snv_nordost" toTaz="wideroe_nordvest" />
  <trip id="veh_5" type="car" depart="30.2" from="515410724#0" to="313965530#1" departLane="best" fromTaz="snv_syd" toTaz="snv_nordost" />
  <trip id="veh_3219" type="car" depart="30.6" from="32321958" to="52975954" departLane="best" fromTaz="wideroe_nordvest" toTaz="martin_linges_sydost" />
  <trip id="veh_1877" type="car" depart="33.2" from="466495265#0" to="52975954" departLane="best" fromTaz="snv_nordost" toTaz="martin_linges_sydost" />
  <trip id="veh_494" type="car" depart="34.6" from="515410724#0" to="32321957" departLane="best" fromTaz="snv_syd" toTaz="wideroe_nordvest" />
  <trip id="veh_2507" type="car" depart="35.7" from="32321958" to="1077838551#1" departLane="best" fromTaz="wideroe_nordvest" toTaz="snv_syd" />
  <trip id="veh_3220" type="car" depart="36.0" from="32321958" to="52975954" departLane="best" fromTaz="wideroe_nordvest" toTaz="martin_linges_sydost" />
  <trip id="veh_2683" type="car" depart="36.3" from="32321958" to="313965530#1" departLane="best" fromTaz="wideroe_nordvest" toTaz="snv_nordost" />
  <trip id="veh_6" type="car" depart="36.4" from="515410724#0" to="313965530#1" departLane="best" fromTaz="snv_syd" toTaz="snv_nordost" />
  <trip id="veh_1878" type="car" depart="37.0" from="466495265#0" to="52975954" departLane="best" fromTaz="snv_nordost" toTaz="martin_linges_sydost" />
  <trip id="veh_837" type="car" depart="38.4" from="-53141119" to="27194983" departLane="best" fromTaz="bbv_west" toTaz="snv_east" />
  <trip id="veh_642" type="car" depart="40.2" from="515410724#0" to="27194983" departLane="best" fromTaz="snv_syd" toTaz="snv_east" />
  <trip id="veh_1235" type="car" depart="40.9" from="466495271#0" to="32321957" departLane="best" fromTaz="snv_nordost" toTaz="wideroe_nordvest" />
  <trip id="veh_980" type="car" depart="41.5" from="466495265#0" to="1077838551#1" departLane="best" fromTaz="snv_nordost" toTaz="snv_syd" />
  <trip id="veh_4099" type="car" depart="43.5" from="27184811#3" to="27194983" departLane="best" fromTaz="rolfsbukt_syd" toTaz="snv_east" />
  <trip id="veh_2433" type="car" depart="43.8" from="466495271#0" to="-27184811#3" departLane="best" fromTaz="snv_nordost" toTaz="rolfsbukt_syd" />
  <trip id="veh_1879" type="car" depart="44.5" from="466495271#0" to="52975954" departLane="best" fromTaz="snv_nordost" toTaz="martin_linges_sydost" />
  <trip id="veh_2684" type="car" depart="44.9" from="32321958" to="313965530#1" departLane="best" fromTaz="wideroe_nordvest" toTaz="snv_nordost" />
  <trip id="veh_7" type="car" depart="45.0" from="515410724#0" to="313965530#1" departLane="best" fromTaz="snv_syd" toTaz="snv_nordost" />
  <trip id="veh_3817" type="car" depart="46.0" from="27184811#3" to="313965530#1" departLane="best" fromTaz="rolfsbukt_syd" toTaz="snv_nordost" />
  <trip id="veh_3221" type="car" depart="46.0" from="32321958" to="52975954" departLane="best" fromTaz="wideroe_nordvest" toTaz="martin_linges_sydost" />
  <trip id="veh_1236" type="car" depart="47.9" from="466495271#0" to="32321957" departLane="best" fromTaz="snv_nordost" toTaz="wideroe_nordvest" />
  <trip id="veh_661" type="car" depart="48.5" from="515410724#0" to="52975954" departLane="best" fromTaz="snv_syd" toTaz="martin_linges_sydost" />
  <trip id="veh_8" type="car" depart="50.5" from="515410724#0" to="313965530#1" departLane="best" fromTaz="snv_syd" toTaz="snv_nordost" />
  <trip id="veh_1880" type="car" depart="51.3" from="466495265#0" to="52975954" departLane="best" fromTaz="snv_nordost" toTaz="martin_linges_sydost" />
  <trip id="veh_1733" type="car" depart="52.1" from="466495265#0" to="27194983" departLane="best" fromTaz="snv_nordost" toTaz="snv_east" />
  <trip id="veh_2685" type="car" depart="52.5" from="32321958" to="313965530#1" departLane="best" fromTaz="wideroe_nordvest" toTaz="snv_nordost" />
  <trip id="veh_1237" type="car" depart="52.8" from="466495265#0" to="32321957" departLane="best" fromTaz="snv_nordost" toTaz="wideroe_nordvest" />
  <trip id="veh_4034" type="car" depart="53.1" from="27184811#3" to="32321957" departLane="best" fromTaz="rolfsbukt_syd" toTaz="wideroe_nordvest" />
  <trip id="veh_981" type="car" depart="54.8" from="466495271#0" to="1077838551#1" departLane="best" fromTaz="snv_nordost" toTaz="snv_syd" />
  <trip id="veh_3222" type="car" depart="54.9" from="32321958" to="52975954" departLane="best" fromTaz="wideroe_nordvest" toTaz="martin_linges_sydost" />
  <trip id="veh_838" type="car" depart="55.8" from="-53141119" to="27194983" departLane="best" fromTaz="bbv_west" toTaz="snv_east" />
  <trip id="veh_495" type="car" depart="57.3" from="515410724#0" to="32321957" departLane="best" fromTaz="snv_syd" toTaz="wideroe_nordvest" />
  <trip id="veh_1881" type="car" depart="59.4" from="466495271#0" to="52975954" departLane="best" fromTaz="snv_nordost" toTaz="martin_linges_sydost" />
  <trip id="veh_3772" type="car" depart="59.9" from="27184811#3" to="1077838551#1" departLane="best" fromTaz="rolfsbukt_syd" toTaz="snv_syd" />
  <trip id="veh_9" type="car" depart="60.5" from="515410724#0" to="313965530#1" departLane="best" fromTaz="snv_syd" toTaz="snv_nordost" />
  <trip id="veh_1238" type="car" depart="60.9" from="466495271#0" to="32321957" departLane="best" fromTaz="snv_nordost" toTaz="wideroe_nordvest" />
  <trip id="veh_2686" type="car" depart="63.1" from="32321958" to="313965530#1" departLane="best" fromTaz="wideroe_nordvest" toTaz="snv_nordost" />
  <trip id="veh_10" type="car" depart="64.1" from="515410724#0" to="313965530#1" departLane="best" fromTaz="snv_syd" toTaz="snv_nordost" />
  <trip id="veh_1882" type="car" depart="65.9" from="466495265#0" to="52975954" departLane="best" fromTaz="snv_nordost" toTaz="martin_linges_sydost" />
  <trip id="veh_2508" type="car" depart="66.8" from="32321958" to="1077838551#1" departLane="best" fromTaz="wideroe_nordvest" toTaz="snv_syd" />
  <trip id="veh_3223" type="car" depart="67.2" from="32321958" to="52975954" departLane="best" fromTaz="wideroe_nordvest" toTaz="martin_linges_sydost" />
  <trip id="veh_3818" type="car" depart="67.5" from="27184811#3" to="313965530#1" departLane="best" fromTaz="rolfsbukt_syd" toTaz="snv_nordost" />
  <trip id="veh_1883" type="car" depart="70.3" from="466495271#0" to="52975954" departLane="best" fromTaz="snv_nordost" toTaz="martin_linges_sydost" />
  <trip id="veh_1239" type="car" depart="72.1" from="466495271#0" to="32321957" departLane="best" fromTaz="snv_nordost" toTaz="wideroe_nordvest" />
  <trip id="veh_2687" type="car" depart="72.2" from="32321958" to="313965530#1" departLane="best" fromTaz="wideroe_nordvest" toTaz="snv_nordost" />
  <trip id="veh_1689" type="car" depart="74.2" from="466495271#0" to="-1014336997" departLane="best" fromTaz="snv_nordost" toTaz="odd_nansens_vest" />
  <trip id="veh_11" type="car" depart="74.7" from="515410724#0" to="313965530#1" departLane="best" fromTaz="snv_syd" toTaz="snv_nordost" />
  <trip id="veh_982" type="car" depart="75.0" from="466495271#0" to="1077838551#1" departLane="best" fromTaz="snv_nordost" toTaz="snv_syd" />
  <trip id="veh_822" type="car" depart="75.2" from="-53141119" to="313965530#1" departLane="best" fromTaz="bbv_west" toTaz="snv_nordost" />
  <trip id="veh_3121" type="car" depart="76.2" from="32321958" to="27194983" departLane="best" fromTaz="wideroe_nordvest" toTaz="snv_east" />
  <trip id="veh_3224" type="car" depart="76.3" from="32321958" to="52975954" departLane="best" fromTaz="wideroe_nordvest" toTaz="martin_linges_sydost" />
  <trip id="veh_662" type="car" depart="77.9" from="515410724#0" to="52975954" departLane="best" fromTaz="snv_syd" toTaz="martin_linges_sydost" />
  <trip id="veh_1884" type="car" depart="78.0" from="466495265#0" to="52975954" departLane="best" fromTaz="snv_nordost" toTaz="martin_linges_sydost" />
  <trip id="veh_2688" type="car" depart="79.7" from="32321958" to="313965530#1" departLane="best" fromTaz="wideroe_nordvest" toTaz="snv_nordost" />
  <trip id="veh_1734" type="car" depart="79.9" from="466495265#0" to="27194983" departLane="best" fromTaz="snv_nordost" toTaz="snv_east" />
  <trip id="veh_1240" type="car" depart="80.5" from="466495265#0" to="32321957" departLane="best" fromTaz="snv_nordost" toTaz="wideroe_nordvest" />
  <trip id="veh_3819" type="car" depart="80.6" from="27184811#3" to="313965530#1" departLane="best" fromTaz="rolfsbukt_syd" toTaz="snv_nordost" />
  <trip id="veh_12" type="car" depart="81.5" from="515410724#0" to="313965530#1" departLane="best" fromTaz="snv_syd" toTaz="snv_nordost" />
  <trip id="veh_3225" type="car" depart="81.8" from="32321958" to="52975954" departLane="best" fromTaz="wideroe_nordvest" toTaz="martin_linges_sydost" />
  <trip id="veh_1885" type="car" depart="82.4" from="466495271#0" to="52975954" departLane="best" fromTaz="snv_nordost" toTaz="martin_linges_sydost" />
  <trip id="veh_496" type="car" depart="84.7" from="515410724#0" to="32321957" departLane="best" fromTaz="snv_syd" toTaz="wideroe_nordvest" />
  <trip id="veh_2434" type="car" depart="85.7" from="466495265#0" to="-27184811#3" departLane="best" fromTaz="snv_nordost" toTaz="rolfsbukt_syd" />
  <trip id="veh_13" type="car" depart="86.0" from="515410724#0" to="313965530#1" departLane="best" fromTaz="snv_syd" toTaz="snv_nordost" />
  <trip id="veh_2689" type="car" depart="86.1" from="32321958" to="313965530#1" departLane="best" fromTaz="wideroe_nordvest" toTaz="snv_nordost" />
  <trip id="veh_1241" type="car" depart="86.2" from="466495265#0" to="32321957" departLane="best" fromTaz="snv_nordost" toTaz="wideroe_nordvest" />
  <trip id="veh_3603" type="car" depart="86.6" from="32321958" to="-27184811#3" departLane="best" fromTaz="wideroe_nordvest" toTaz="rolfsbukt_syd" />
  <trip id="veh_983" type="car" depart="87.3" from="466495271#0" to="1077838551#1" departLane="best" fromTaz="snv_nordost" toTaz="snv_syd" />
  <trip id="veh_2509" type="car" depart="87.8" from="32321958" to="1077838551#1" departLane="best" fromTaz="wideroe_nordvest" toTaz="snv_syd" />
  <trip id="veh_1886" type="car" depart="90.7" from="466495271#0" to="52975954" departLane="best" fromTaz="snv_nordost" toTaz="martin_linges_sydost" />
  <trip id="veh_839" type="car" depart="90.9" from="-53141119" to="27194983" departLane="best" fromTaz="bbv_west" toTaz="snv_east" />
  <trip id="veh_1242" type="car" depart="93.5" from="466495265#0" to="32321957" departLane="best" fromTaz="snv_nordost" toTaz="wideroe_nordvest" />
  <trip id="veh_3763" type="car" depart="93.7" from="-52975954" to="-27184811#3" departLane="best" fromTaz="martin_linges_sydost" toTaz="rolfsbukt_syd" />
  <trip id="veh_3706" type="car" depart="93.9" from="-52975954" to="313965530#1" departLane="best" fromTaz="martin_linges_sydost" toTaz="snv_nordost" />
  <trip id="veh_1887" type="car" depart="95.0" from="466495265#0" to="52975954" departLane="best" fromTaz="snv_nordost" toTaz="martin_linges_sydost" />
  <trip id="veh_14" type="car" depart="95.5" from="515410724#0" to="313965530#1" departLane="best" fromTaz="snv_syd" toTaz="snv_nordost" />
  <trip id="veh_3226" type="car" depart="95.7" from="32321958" to="52975954" departLane="best" fromTaz="wideroe_nordvest" toTaz="martin_linges_sydost" />
  <trip id="veh_2690" type="car" depart="96.0" from="32321958" to="313965530#1" departLane="best" fromTaz="wideroe_nordvest" toTaz="snv_nordost" />
  <trip id="veh_3091" type="car" depart="97.5" from="32321958" to="-1014336997" departLane="best" fromTaz="wideroe_nordvest" toTaz="odd_nansens_vest" />
  <trip id="veh_663" type="car" depart="99.4" from="515410724#0" to="52975954" departLane="best" fromTaz="snv_syd" toTaz="martin_linges_sydost" />
  <trip id="veh_3820" type="car" depart="101.4" from="27184811#3" to="313965530#1" departLane="best" fromTaz="rolfsbukt_syd" toTaz="snv_nordost" />
  <trip id="veh_1243" type="car" depart="102.3" from="466495271#0" to="32321957" departLane="best" fromTaz="snv_nordost" toTaz="wideroe_nordvest" />
  <trip id="veh_1888" type="car" depart="102.5" from="466495265#0" to="52975954" departLane="best" fromTaz="snv_nordost" toTaz="martin_linges_sydost" />
  <trip id="veh_15" type="car" depart="103.1" from="515410724#0" to="313965530#1" departLane="best" fromTaz="snv_syd" toTaz="snv_nordost" />
  <trip id="veh_1735" type="car" depart="103.4" from="466495265#0" to="27194983" departLane="best" fromTaz="snv_nordost" toTaz="snv_east" />
  <trip id="veh_3227" type="car" depart="103.6" from="32321958" to="52975954" departLane="best" fromTaz="wideroe_nordvest" toTaz="martin_linges_sydost" />
  <trip id="veh_984" type="car" depart="104.6" from="466495271#0" to="1077838551#1" departLane="best" fromTaz="snv_nordost" toTaz="snv_syd" />
  <trip id="veh_2510" type="car" depart="106.6" from="32321958" to="1077838551#1" departLane="best" fromTaz="wideroe_nordvest" toTaz="snv_syd" />
  <trip id="veh_2691" type="car" depart="107.4" from="32321958" to="313965530#1" departLane="best" fromTaz="wideroe_nordvest" toTaz="snv_nordost" />
  <trip id="veh_3122" type="car" depart="109.1" from="32321958" to="27194983" departLane="best" fromTaz="wideroe_nordvest" toTaz="snv_east" />
  <trip id="veh_1889" type="car" depart="110.8" from="466495271#0" to="52975954" departLane="best" fromTaz="snv_nordost" toTaz="martin_linges_sydost" />
  <trip id="veh_3228" type="car" depart="110.8" from="32321958" to="52975954" departLane="best" fromTaz="wideroe_nordvest" toTaz="martin_linges_sydost" />
  <trip id="veh_1244" type="car" depart="111.0" from="466495271#0" to="32321957" departLane="best" fromTaz="snv_nordost" toTaz="wideroe_nordvest" />
  <trip id="veh_16" type="car" depart="111.3" from="515410724#0" to="313965530#1" departLane="best" fromTaz="snv_syd" toTaz="snv_nordost" />
  <trip id="veh_3821" type="car" depart="113.2" from="27184811#3" to="313965530#1" departLane="best" fromTaz="rolfsbukt_syd" toTaz="snv_nordost" />
  <trip id="veh_2692" type="car" depart="115.3" from="32321958" to="313965530#1" departLane="best" fromTaz="wideroe_nordvest" toTaz="snv_nordost" />
  <trip id="veh_1890" type="car" depart="116.0" from="466495271#0" to="52975954" departLane="best" fromTaz="snv_nordost" toTaz="martin_linges_sydost" />
  <trip id="veh_17" type="car" depart="116.1" from="515410724#0" to="313965530#1" departLane="best" fromTaz="snv_syd" toTaz="snv_nordost" />
  <trip id="veh_985" type="car" depart="117.3" from="466495271#0" to="1077838551#1" departLane="best" fromTaz="snv_nordost" toTaz="snv_syd" />
  <trip id="veh_497" type="car" depart="119.9" from="515410724#0" to="32321957" departLane="best" fromTaz="snv_syd" toTaz="wideroe_nordvest" />
  <trip id="veh_1245" type="car" depart="119.9" from="466495271#0" to="32321957" departLane="best" fromTaz="snv_nordost" toTaz="wideroe_nordvest" />
  <trip id="veh_1891" type="car" depart="121.8" from="466495265#0" to="52975954" departLane="best" fromTaz="snv_nordost" toTaz="martin_linges_sydost" />
  <trip id="veh_2511" type="car" depart="122.2" from="32321958" to="1077838551#1" departLane="best" fromTaz="wideroe_nordvest" toTaz="snv_syd" />
  <trip id="veh_3229" type="car" depart="122.9" from="32321958" to="52975954" departLane="best" fromTaz="wideroe_nordvest" toTaz="martin_linges_sydost" />
  <trip id="veh_2693" type="car" depart="123.5" from="32321958" to="313965530#1" departLane="best" fromTaz="wideroe_nordvest" toTaz="snv_nordost" />
  <trip id="veh_18" type="car" depart="123.8" from="515410724#0" to="313965530#1" departLane="best" fromTaz="snv_syd" toTaz="snv_nordost" />
  <trip id="veh_840" type="car" depart="125.2" from="-53141119" to="27194983" departLane="best" fromTaz="bbv_west" toTaz="snv_east" />
  <trip id="veh_1246" type="car" depart="127.1" from="466495265#0" to="32321957" departLane="best" fromTaz="snv_nordost" toTaz="wideroe_nordvest" />
  <trip id="veh_3230" type="car" depart="128.0" from="32321958" to="52975954" departLane="best" fromTaz="wideroe_nordvest" toTaz="martin_linges_sydost" />
  <trip id="veh_1892" type="car" depart="128.9" from="466495265#0" to="52975954" departLane="best" fromTaz="snv_nordost" toTaz="martin_linges_sydost" />
  <trip id="veh_3604" type="car" depart="130.7" from="32321958" to="-27184811#3" departLane="best" fromTaz="wideroe_nordvest" toTaz="rolfsbukt_syd" />
  <trip id="veh_1227" type="car" depart="131.4" from="466495265#0" to="53141119" departLane="best" fromTaz="snv_nordost" toTaz="bbv_west" />
  <trip id="veh_19" type="car" depart="132.6" from="515410724#0" to="313965530#1" departLane="best" fromTaz="snv_syd" toTaz="snv_nordost" />
  <trip id="veh_1247" type="car" depart="132.6" from="466495265#0" to="32321957" departLane="best" fromTaz="snv_nordost" toTaz="wideroe_nordvest" />
  <trip id="veh_1736" type="car" depart="133.1" from="466495271#0" to="27194983" departLane="best" fromTaz="snv_nordost" toTaz="snv_east" />
  <trip id="veh_1893" type="car" depart="133.1" from="466495265#0" to="52975954" departLane="best" fromTaz="snv_nordost" toTaz="martin_linges_sydost" />
  <trip id="veh_2694" type="car" depart="133.6" from="32321958" to="313965530#1" departLane="best" fromTaz="wideroe_nordvest" toTaz="snv_nordost" />
  <trip id="veh_986" type="car" depart="133.8" from="466495271#0" to="1077838551#1" departLane="best" fromTaz="snv_nordost" toTaz="snv_syd" />
  <trip id="veh_3822" type="car" depart="134.1" from="27184811#3" to="313965530#1" departLane="best" fromTaz="rolfsbukt_syd" toTaz="snv_nordost" />
  <trip id="veh_664" type="car" depart="136.4" from="515410724#0" to="52975954" departLane="best" fromTaz="snv_syd" toTaz="martin_linges_sydost" />
  <trip id="veh_3231" type="car" depart="137.4" from="32321958" to="52975954" departLane="best" fromTaz="wideroe_nordvest" toTaz="martin_linges_sydost" />
  <trip id="veh_20" type="car" depart="139.2" from="515410724#0" to="313965530#1" departLane="best" fromTaz="snv_syd" toTaz="snv_nordost" />
  <trip id="veh_1894" type="car" depart="140.5" from="466495265#0" to="52975954" departLane="best" fromTaz="snv_nordost" toTaz="martin_linges_sydost" />
  <trip id="veh_4035" type="car" depart="140.6" from="27184811#3" to="32321957" departLane="best" fromTaz="rolfsbukt_syd" toTaz="wideroe_nordvest" />
  <trip id="veh_1248" type="car" depart="141.0" from="466495271#0" to="32321957" departLane="best" fromTaz="snv_nordost" toTaz="wideroe_nordvest" />
  <trip id="veh_2695" type="car" depart="141.7" from="32321958" to="313965530#1" departLane="best" fromTaz="wideroe_nordvest" toTaz="snv_nordost" />
  <trip id="veh_2435" type="car" depart="142.1" from="466495265#0" to="-27184811#3" departLane="best" fromTaz="snv_nordost" toTaz="rolfsbukt_syd" />
  <trip id="veh_841" type="car" depart="142.8" from="-53141119" to="27194983" departLane="best" fromTaz="bbv_west" toTaz="snv_east" />
  <trip id="veh_2512" type="car" depart="143.2" from="32321958" to="1077838551#1" departLane="best" fromTaz="wideroe_nordvest" toTaz="snv_syd" />
  <trip id="veh_21" type="car" depart="146.2" from="515410724#0" to="313965530#1" departLane="best" fromTaz="snv_syd" toTaz="snv_nordost" />
  <trip id="veh_987" type="car" depart="146.8" from="466495265#0" to="1077838551#1" departLane="best" fromTaz="snv_nordost" toTaz="snv_syd" />
  <trip id="veh_1249" type="car" depart="147.7" from="466495271#0" to="32321957" departLane="best" fromTaz="snv_nordost" toTaz="wideroe_nordvest" />
  <trip id="veh_498" type="car" depart="148.1" from="515410724#0" to="32321957" departLane="best" fromTaz="snv_syd" toTaz="wideroe_nordvest" />
  <trip id="veh_3232" type="car" depart="148.8" from="32321958" to="52975954" departLane="best" fromTaz="wideroe_nordvest" toTaz="martin_linges_sydost" />
  <trip id="veh_1895" type="car" depart="149.4" from="466495271#0" to="52975954" departLane="best" fromTaz="snv_nordost" toTaz="martin_linges_sydost" />
  <trip id="veh_3823" type="car" depart="149.8" from="27184811#3" to="313965530#1" departLane="best" fromTaz="rolfsbukt_syd" toTaz="snv_nordost" />
  <trip id="veh_2696" type="car" depart="151.2" from="32321958" to="313965530#1" departLane="best" fromTaz="wideroe_nordvest" toTaz="snv_nordost" />
  <trip id="veh_665" type="car" depart="153.5" from="515410724#0" to="52975954" departLane="best" fromTaz="snv_syd" toTaz="martin_linges_sydost" />
  <trip id="veh_1896" type="car" depart="154.0" from="466495271#0" to="52975954" departLane="best" fromTaz="snv_nordost" toTaz="martin_linges_sydost" />
  <trip id="veh_643" type="car" depart="154.0" from="515410724#0" to="27194983" departLane="best" fromTaz="snv_syd" toTaz="snv_east" />
  <trip id="veh_988" type="car" depart="154.2" from="466495271#0" to="1077838551#1" departLane="best" fromTaz="snv_nordost" toTaz="snv_syd" />
  <trip id="veh_22" type="car" depart="154.5" from="515410724#0" to="313965530#1" departLane="best" fromTaz="snv_syd" toTaz="snv_nordost" />