<?xml version='1.0' encoding='utf-8'?>
<additional>
  <closingLaneReroute />
  <closingLaneReroute />
  <closingLaneReroute />
  <closingLaneReroute />
  <closingLaneReroute />
  <closingLaneReroute />
  <closingLaneReroute />
  <closingLaneReroute />
  <closingLaneReroute />
  <closingLaneReroute />
  <closingLaneReroute />
  <closingLaneReroute />
  <closingLaneReroute />
  <closingLaneReroute />
  <closingLaneReroute />
  <closingLaneReroute />
  <closingLaneReroute />
  <closingLaneReroute />
  <closingLaneReroute />
  <closingLaneReroute />
  <closingLaneReroute />
  <closingLaneReroute />
  <closingLaneReroute />
  <closingLaneReroute />
  <closingLaneReroute />
  <closingLaneReroute />
  <closingLaneReroute />
  <closingLaneReroute />
  <closingLaneReroute />
  <closingLaneReroute />
  <closingLaneReroute />
  <closingLaneReroute />
  <closingLaneReroute />
  <closingLaneReroute />
  <closingLaneReroute />
  <closingLaneReroute />
  <closingLaneReroute />
  <closingLaneReroute />
  <closingLaneReroute />
  <closingLaneReroute />
</additional>