<?xml version='1.0' encoding='utf-8'?>
<net xmlns:xsi="http://www.w3.org/2001/XMLSchema-instance" version="1.20" junctionCornerDetail="5" limitTurnSpeed="5.50" avoidOverlap="0" xsi:noNamespaceSchemaLocation="http://sumo.dlr.de/xsd/net_file.xsd">
  <location netOffset="-587325.40,-6638827.91" convBoundary="0.00,0.00,4216.73,4162.49" origBoundary="10.537128,59.877260,10.637538,59.914818" projParameter="+proj=utm +zone=32 +ellps=WGS84 +datum=WGS84 +units=m +no_defs" />
  <edge id=":10092062591_0" function="internal">
    <lane id=":10092062591_0_0" index="0" speed="8.33" length="23.45" shape="3099.34,3270.62 3096.04,3265.13 3091.93,3261.16 3087.01,3258.68 3081.27,3257.71" />
  </edge>
  <edge id=":10092062591_1" function="internal">
    <lane id=":10092062591_1_0" index="0" speed="8.33" length="26.85" shape="3099.34,3270.62 3097.95,3264.89 3099.12,3259.21 3102.83,3253.57 3109.09,3247.96" />
  </edge>
  <edge id=":10092062591_2" function="internal">
    <lane id=":10092062591_2_0" index="0" speed="3.66" length="4.70" shape="3099.34,3270.62 3099.71,3269.21 3100.34,3268.57 3101.23,3268.69 3102.38,3269.56" />
  </edge>
  <edge id=":10092062591_3" function="internal">
    <lane id=":10092062591_3_0" index="0" speed="8.33" length="22.33" shape="3110.06,3251.10 3104.77,3255.03 3101.73,3259.41 3100.94,3264.26 3102.38,3269.56" />
  </edge>
  <edge id=":10092062591_4" function="internal">
    <lane id=":10092062591_4_0" index="0" speed="8.33" length="29.64" shape="3110.06,3251.10 3104.44,3253.21 3095.91,3255.41 3087.27,3257.10 3081.27,3257.71" />
  </edge>
  <edge id=":10092062591_5" function="internal">
    <lane id=":10092062591_5_0" index="0" speed="3.73" length="4.79" shape="3110.06,3251.10 3108.64,3250.68 3108.01,3250.01 3108.16,3249.11 3109.09,3247.96" />
  </edge>
  <edge id=":10092062591_6" function="internal">
    <lane id=":10092062591_6_0" index="0" speed="8.33" length="29.11" shape="3080.89,3254.49 3086.84,3253.97 3095.36,3252.41 3103.69,3250.26 3109.09,3247.96" />
  </edge>
  <edge id=":10092062591_7" function="internal">
    <lane id=":10092062591_7_0" index="0" speed="8.33" length="27.72" shape="3080.89,3254.49 3087.76,3255.63 3093.63,3258.53 3098.51,3263.17 3102.38,3269.56" />
  </edge>
  <edge id=":10092062591_8" function="internal">
    <lane id=":10092062591_8_0" index="0" speed="3.67" length="4.73" shape="3080.89,3254.49 3082.19,3255.16 3082.69,3255.91 3082.38,3256.76 3081.27,3257.71" />
  </edge>
  <edge id=":10092062596_0" function="internal">
    <lane id=":10092062596_0_0" index="0" speed="8.33" length="18.74" shape="3155.06,3209.49 3149.56,3207.62 3145.19,3207.76 3141.95,3209.92 3139.84,3214.08" />
  </edge>
  <edge id=":10092062596_1" function="internal">
    <lane id=":10092062596_1_0" index="0" speed="8.33" length="31.48" shape="3155.06,3209.49 3149.99,3205.81 3142.94,3199.56 3135.99,3193.15 3131.24,3188.95" />
  </edge>
  <edge id=":10092062596_2" function="internal">
    <lane id=":10092062596_2_0" index="0" speed="3.76" length="5.12" shape="3155.06,3209.49 3154.87,3207.92 3155.25,3207.02 3156.20,3206.78 3157.72,3207.21" />
  </edge>
  <edge id=":10092062596_3" function="internal">
    <lane id=":10092062596_3_0" index="0" speed="8.33" length="32.18" shape="3133.19,3186.42 3138.06,3190.66 3145.25,3197.16 3152.54,3203.49 3157.72,3207.21" />
  </edge>
  <edge id=":10092062596_4" function="internal">
    <lane id=":10092062596_4_0" index="0" speed="8.33" length="30.38" shape="3133.19,3186.42 3138.14,3191.66 3140.90,3198.01 3141.47,3205.49 3139.84,3214.08" />
  </edge>
  <edge id=":10092062596_5" function="internal">
    <lane id=":10092062596_5_0" index="0" speed="3.65" length="4.67" shape="3133.19,3186.42 3133.65,3187.79 3133.48,3188.66 3132.67,3189.05 3131.24,3188.95" />
  </edge>
  <edge id=":10092062596_6" function="internal">
    <lane id=":10092062596_6_0" index="0" speed="8.33" length="27.77" shape="3136.72,3213.15 3139.60,3206.65 3139.65,3200.45 3136.86,3194.55 3131.24,3188.95" />
  </edge>
  <edge id=":10092062596_7" function="internal">
    <lane id=":10092062596_7_0" index="0" speed="8.33" length="24.23" shape="3136.72,3213.15 3140.98,3208.22 3145.91,3205.58 3151.49,3205.25 3157.72,3207.21" />
  </edge>
  <edge id=":10092062596_8" function="internal">
    <lane id=":10092062596_8_0" index="0" speed="3.81" length="4.77" shape="3136.72,3213.15 3137.85,3212.21 3138.75,3212.05 3139.41,3212.68 3139.84,3214.08" />
  </edge>
  <edge id=":10092062600_0" function="internal">
    <lane id=":10092062600_0_0" index="0" speed="3.65" length="4.67" shape="3188.46,3227.92 3188.92,3229.29 3188.74,3230.16 3187.94,3230.55 3186.50,3230.44" />
  </edge>
  <edge id=":10092062611_0" function="internal">
    <lane id=":10092062611_0_0" index="0" speed="3.91" length="2.46" shape="3285.16,3291.25 3284.50,3291.14 3283.95,3291.26 3283.51,3291.61 3283.18,3292.19" />
  </edge>
  <edge id=":10092062611_1" function="internal">
    <lane id=":10092062611_1_0" index="0" speed="6.09" length="7.39" shape="3280.20,3291.02 3281.19,3289.27 3282.51,3288.22 3284.16,3287.86 3286.14,3288.21" />
  </edge>
  <edge id=":10109280079_0" function="internal">
    <lane id=":10109280079_0_0" index="0" disallow="pedestrian" speed="9.72" length="15.47" shape="3641.08,2315.98 3636.76,2316.33 3633.07,2317.46 3630.00,2319.39 3627.56,2322.11" />
  </edge>
  <edge id=":10109280079_1" function="internal">
    <lane id=":10109280079_1_0" index="0" disallow="pedestrian" speed="11.11" length="16.77" shape="3636.81,2308.05 3627.56,2322.11" />
    <lane id=":10109280079_1_1" index="1" disallow="pedestrian" speed="11.11" length="16.77" shape="3634.10,2306.34 3624.92,2320.30" />
  </edge>
  <edge id=":10109320985_0" function="internal">
    <lane id=":10109320985_0_0" index="0" disallow="pedestrian" speed="22.22" length="2.07" shape="2688.98,3172.22 2689.13,3172.37 2689.24,3172.45 2689.37,3172.52 2689.56,3172.59" />
    <lane id=":10109320985_0_1" index="1" disallow="pedestrian" speed="8.52" length="2.07" shape="2686.71,3174.48 2687.15,3174.91 2687.48,3175.17 2687.86,3175.36 2688.43,3175.59" />
    <lane id=":10109320985_0_2" index="2" disallow="pedestrian" speed="10.86" length="2.07" shape="2684.44,3176.73 2685.17,3177.45 2685.72,3177.89 2686.35,3178.21 2687.30,3178.58" />
  </edge>
  <edge id=":1019286536_0" function="internal">
    <lane id=":1019286536_0_0" index="0" disallow="pedestrian" speed="8.33" length="12.62" shape="3698.65,2326.76 3695.38,2326.06 3692.70,2324.88 3690.03,2323.58 3686.83,2322.49" />
  </edge>
  <edge id=":1019286536_1" function="internal">
    <lane id=":1019286536_1_0" index="0" speed="3.65" length="4.67" shape="3698.65,2326.76 3697.53,2325.85 3697.21,2325.02 3697.68,2324.26 3698.96,2323.58" />
  </edge>
  <edge id=":1019286536_2" function="internal">
    <lane id=":1019286536_2_0" index="0" disallow="pedestrian" speed="8.33" length="11.63" shape="3688.81,2318.36 3691.37,2320.40 3693.50,2321.94 3695.83,2322.99 3698.96,2323.58" />
  </edge>
  <edge id=":1019286536_3" function="internal">
    <lane id=":1019286536_3_0" index="0" disallow="pedestrian" speed="5.56" length="11.83" shape="3688.81,2318.36 3691.92,2321.13 3692.63,2322.73 3690.93,2323.19 3686.83,2322.49" />
  </edge>
  <edge id=":10411547_0" function="internal">
    <lane id=":10411547_0_0" index="0" speed="13.89" length="0.38" shape="1108.69,2621.61 1108.47,2622.01" />
    <lane id=":10411547_0_1" index="1" speed="13.89" length="0.38" shape="1105.83,2620.18 1105.68,2620.46" />
  </edge>
  <edge id=":10411547_2" function="internal">
    <lane id=":10411547_2_0" index="0" speed="13.89" length="0.11" shape="1100.08,2617.35 1100.11,2617.31" />
    <lane id=":10411547_2_1" index="1" speed="13.89" length="0.11" shape="1102.88,2618.90 1102.97,2618.74" />
  </edge>
  <edge id=":10411551_0" function="internal">
    <lane id=":10411551_0_0" index="0" speed="13.89" length="1.76" shape="1155.19,2504.90 1155.06,2505.46 1154.94,2505.84 1154.79,2506.21 1154.60,2506.75" />
    <lane id=":10411551_0_1" index="1" speed="13.89" length="1.76" shape="1152.05,2504.28 1151.94,2504.73 1151.84,2505.03 1151.71,2505.32 1151.56,2505.76" />
  </edge>
  <edge id=":10411551_2" function="internal">
    <lane id=":10411551_2_0" index="0" speed="13.89" length="1.00" shape="1145.69,2503.83 1145.77,2503.04" />
    <lane id=":10411551_2_1" index="1" speed="13.89" length="1.00" shape="1148.76,2504.84 1148.91,2503.66" />
  </edge>
  <edge id=":10411552_0" function="internal">
    <lane id=":10411552_0_0" index="0" speed="13.89" length="27.37" shape="1149.93,2453.85 1148.22,2446.97 1146.01,2440.81 1142.93,2435.08 1138.65,2429.50" />
    <lane id=":10411552_0_1" index="1" speed="13.89" length="27.37" shape="1152.98,2452.80 1151.17,2445.90 1148.79,2439.68 1145.64,2433.81 1141.57,2427.98" />
  </edge>
  <edge id=":10411552_2" function="internal">
    <lane id=":10411552_2_0" index="0" speed="11.11" length="2.55" shape="1152.98,2452.80 1153.09,2450.25" />
  </edge>
  <edge id=":10411552_3" function="internal">
    <lane id=":10411552_3_0" index="0" speed="3.66" length="1.45" shape="1152.98,2452.80 1153.34,2451.39" />
  </edge>
  <edge id=":10411552_11" function="internal">
    <lane id=":10411552_11_0" index="0" speed="11.11" length="25.40" shape="1153.09,2450.25 1153.31,2445.31 1156.26,2438.04 1160.03,2431.77 1162.86,2427.30" />
  </edge>
  <edge id=":10411552_12" function="internal">
    <lane id=":10411552_12_0" index="0" speed="3.66" length="3.26" shape="1153.34,2451.39 1153.97,2450.75 1154.87,2450.86 1156.02,2451.74" />
  </edge>
  <edge id=":10411552_4" function="internal">
    <lane id=":10411552_4_0" index="0" speed="11.11" length="21.29" shape="1164.64,2430.76 1162.49,2434.37 1160.20,2438.72 1158.73,2444.07 1159.07,2450.68" />
  </edge>
  <edge id=":10411552_5" function="internal">
    <lane id=":10411552_5_0" index="0" speed="9.86" length="29.26" shape="1164.64,2430.76 1159.61,2436.58 1153.81,2437.48 1147.67,2434.32 1141.57,2427.98" />
  </edge>
  <edge id=":10411552_6" function="internal">
    <lane id=":10411552_6_0" index="0" speed="3.91" length="5.69" shape="1164.64,2430.76 1162.90,2430.57 1162.02,2429.93 1162.00,2428.84 1162.86,2427.30" />
  </edge>
  <edge id=":10411552_7" function="internal">
    <lane id=":10411552_7_0" index="0" speed="8.25" length="20.05" shape="1147.33,2424.97 1152.04,2429.93 1156.20,2431.97 1159.80,2431.09 1162.86,2427.30" />
  </edge>
  <edge id=":10411552_8" function="internal">
    <lane id=":10411552_8_0" index="0" speed="13.89" length="28.27" shape="1147.33,2424.97 1151.46,2430.94 1154.72,2437.12 1157.22,2443.65 1159.07,2450.68" />
    <lane id=":10411552_8_1" index="1" speed="13.89" length="28.27" shape="1144.45,2426.48 1148.55,2432.38 1151.75,2438.40 1154.20,2444.78 1156.02,2451.74" />
  </edge>
  <edge id=":10411552_10" function="internal">
    <lane id=":10411552_10_0" index="0" speed="3.67" length="1.47" shape="1144.45,2426.48 1144.29,2427.93" />
  </edge>
  <edge id=":10411552_13" function="internal">
    <lane id=":10411552_13_0" index="0" speed="3.67" length="3.28" shape="1144.29,2427.93 1143.76,2428.67 1142.85,2428.69 1141.57,2427.98" />
  </edge>
  <edge id=":10411560_0" function="internal">
    <lane id=":10411560_0_0" index="0" speed="8.33" length="25.53" shape="1179.86,2227.45 1173.79,2224.05 1167.82,2222.79 1161.94,2223.67 1156.16,2226.69" />
  </edge>
  <edge id=":10411560_1" function="internal">
    <lane id=":10411560_1_0" index="0" speed="8.33" length="31.72" shape="1179.86,2227.45 1174.97,2223.35 1167.97,2216.86 1161.32,2210.08 1157.47,2205.10" />
  </edge>
  <edge id=":10411560_2" function="internal">
    <lane id=":10411560_2_0" index="0" speed="8.33" length="27.26" shape="1179.86,2227.45 1174.26,2221.99 1172.37,2216.50 1174.19,2210.98 1179.71,2205.44" />
  </edge>
  <edge id=":10411560_3" function="internal">
    <lane id=":10411560_3_0" index="0" speed="3.65" length="4.67" shape="1179.86,2227.45 1179.37,2226.10 1179.52,2225.22 1180.31,2224.81 1181.75,2224.87" />
  </edge>
  <edge id=":10411560_4" function="internal">
    <lane id=":10411560_4_0" index="0" speed="8.33" length="20.90" shape="1181.64,2208.00 1177.40,2212.25 1176.01,2216.47 1177.46,2220.68 1181.75,2224.87" />
  </edge>
  <edge id=":10411560_5" function="internal">
    <lane id=":10411560_5_0" index="0" speed="8.33" length="31.60" shape="1181.64,2208.00 1156.16,2226.69" />
  </edge>
  <edge id=":10411560_6" function="internal">
    <lane id=":10411560_6_0" index="0" speed="8.33" length="29.64" shape="1181.64,2208.00 1174.13,2212.69 1167.71,2214.16 1162.21,2211.83 1157.47,2205.10" />
  </edge>
  <edge id=":10411560_7" function="internal">
    <lane id=":10411560_7_0" index="0" speed="3.65" length="4.67" shape="1181.64,2208.00 1180.20,2208.08 1179.39,2207.68 1179.23,2206.80 1179.71,2205.44" />
  </edge>
  <edge id=":10411560_8" function="internal">
    <lane id=":10411560_8_0" index="0" speed="8.33" length="23.57" shape="1160.09,2203.18 1163.59,2208.00 1168.02,2209.99 1173.39,2209.13 1179.71,2205.44" />
  </edge>
  <edge id=":10411560_9" function="internal">
    <lane id=":10411560_9_0" index="0" speed="8.33" length="30.73" shape="1160.09,2203.18 1163.83,2208.05 1170.23,2214.61 1176.97,2220.87 1181.75,2224.87" />
  </edge>
  <edge id=":10411560_10" function="internal">
    <lane id=":10411560_10_0" index="0" speed="8.33" length="26.23" shape="1160.09,2203.18 1162.64,2210.42 1162.84,2216.75 1160.68,2222.17 1156.16,2226.69" />
  </edge>
  <edge id=":10411560_11" function="internal">
    <lane id=":10411560_11_0" index="0" speed="3.67" length="4.75" shape="1160.09,2203.18 1160.16,2204.65 1159.74,2205.46 1158.85,2205.61 1157.47,2205.10" />
  </edge>
  <edge id=":10411560_12" function="internal">
    <lane id=":10411560_12_0" index="0" speed="8.33" length="21.17" shape="1154.30,2224.08 1157.94,2220.44 1159.69,2216.06 1159.53,2210.95 1157.47,2205.10" />
  </edge>
  <edge id=":10411560_13" function="internal">
    <lane id=":10411560_13_0" index="0" speed="8.33" length="31.51" shape="1154.30,2224.08 1179.71,2205.44" />
  </edge>
  <edge id=":10411560_14" function="internal">
    <lane id=":10411560_14_0" index="0" speed="8.33" length="29.56" shape="1154.30,2224.08 1161.02,2220.56 1167.84,2219.52 1174.75,2220.95 1181.75,2224.87" />
  </edge>
  <edge id=":10411560_15" function="internal">
    <lane id=":10411560_15_0" index="0" speed="3.65" length="4.67" shape="1154.30,2224.08 1155.74,2224.04 1156.53,2224.46 1156.67,2225.34 1156.16,2226.69" />
  </edge>
  <edge id=":10411563_0" function="internal">
    <lane id=":10411563_0_0" index="0" speed="8.33" length="24.13" shape="1147.06,2180.33 1144.71,2175.79 1140.64,2170.24 1136.12,2164.98 1132.41,2161.33" />
  </edge>
  <edge id=":10411563_1" function="internal">
    <lane id=":10411563_1_0" index="0" speed="8.33" length="28.53" shape="1147.06,2180.33 1145.76,2173.31 1146.06,2166.42 1147.96,2159.67 1151.46,2153.05" />
  </edge>
  <edge id=":10411563_2" function="internal">
    <lane id=":10411563_2_0" index="0" speed="3.66" length="4.70" shape="1147.06,2180.33 1147.62,2178.99 1148.34,2178.44 1149.20,2178.69 1150.22,2179.72" />
  </edge>
  <edge id=":10411563_3" function="internal">
    <lane id=":10411563_3_0" index="0" speed="8.33" length="26.45" shape="1154.37,2154.45 1151.11,2160.61 1149.33,2166.88 1149.03,2173.25 1150.22,2179.72" />
  </edge>
  <edge id=":10411563_4" function="internal">
    <lane id=":10411563_4_0" index="0" speed="8.33" length="26.80" shape="1154.37,2154.45 1148.99,2161.00 1143.53,2164.33 1138.01,2164.44 1132.41,2161.33" />
  </edge>
  <edge id=":10411563_5" function="internal">
    <lane id=":10411563_5_0" index="0" speed="3.66" length="4.72" shape="1154.37,2154.45 1153.12,2155.19 1152.22,2155.21 1151.67,2154.49 1151.46,2153.05" />
  </edge>
  <edge id=":10411563_6" function="internal">
    <lane id=":10411563_6_0" index="0" speed="8.33" length="21.50" shape="1133.79,2158.31 1138.34,2160.87 1142.80,2160.84 1147.17,2158.24 1151.46,2153.05" />
  </edge>
  <edge id=":10411563_7" function="internal">
    <lane id=":10411563_7_0" index="0" speed="8.33" length="27.12" shape="1133.79,2158.31 1137.77,2162.33 1142.91,2168.42 1147.59,2174.80 1150.22,2179.72" />
  </edge>
  <edge id=":10411563_8" function="internal">
    <lane id=":10411563_8_0" index="0" speed="3.70" length="4.85" shape="1133.79,2158.31 1134.58,2159.58 1134.61,2160.51 1133.89,2161.09 1132.41,2161.33" />
  </edge>
  <edge id=":10411574_0" function="internal">
    <lane id=":10411574_0_0" index="0" speed="8.33" length="26.62" shape="1292.62,2134.24 1287.34,2132.62 1279.66,2131.47 1271.89,2130.97 1266.35,2131.32" />
  </edge>
  <edge id=":10411574_1" function="internal">
    <lane id=":10411574_1_0" index="0" speed="8.33" length="26.63" shape="1292.62,2134.24 1286.49,2129.85 1283.01,2124.70 1282.19,2118.80 1284.02,2112.13" />
  </edge>
  <edge id=":10411574_2" function="internal">
    <lane id=":10411574_2_0" index="0" speed="3.66" length="4.69" shape="1292.62,2134.24 1291.82,2133.02 1291.77,2132.13 1292.45,2131.55 1293.88,2131.28" />
  </edge>
  <edge id=":10411574_3" function="internal">
    <lane id=":10411574_3_0" index="0" speed="8.33" length="21.49" shape="1286.94,2113.44 1285.46,2118.82 1286.13,2123.59 1288.93,2127.74 1293.88,2131.28" />
  </edge>
  <edge id=":10411574_4" function="internal">
    <lane id=":10411574_4_0" index="0" speed="8.33" length="28.29" shape="1286.94,2113.44 1283.19,2120.05 1278.51,2125.23 1272.90,2128.99 1266.35,2131.32" />
  </edge>
  <edge id=":10411574_5" function="internal">
    <lane id=":10411574_5_0" index="0" speed="3.65" length="4.67" shape="1286.94,2113.44 1285.72,2114.21 1284.83,2114.24 1284.26,2113.55 1284.02,2112.13" />
  </edge>
  <edge id=":10411574_6" function="internal">
    <lane id=":10411574_6_0" index="0" speed="8.33" length="25.33" shape="1265.63,2128.20 1271.46,2126.12 1276.47,2122.75 1280.65,2118.08 1284.02,2112.13" />
  </edge>
  <edge id=":10411574_7" function="internal">
    <lane id=":10411574_7_0" index="0" speed="8.33" length="28.59" shape="1265.63,2128.20 1271.48,2127.87 1279.93,2128.43 1288.29,2129.64 1293.88,2131.28" />
  </edge>
  <edge id=":10411574_8" function="internal">
    <lane id=":10411574_8_0" index="0" speed="3.65" length="4.67" shape="1265.63,2128.20 1266.98,2128.71 1267.55,2129.40 1267.34,2130.27 1266.35,2131.32" />
  </edge>
  <edge id=":10411575_0" function="internal">
    <lane id=":10411575_0_0" index="0" speed="8.33" length="22.94" shape="1371.87,2169.03 1367.76,2166.39 1361.77,2163.96 1355.52,2162.01 1350.63,2160.81" />
  </edge>
  <edge id=":10411575_1" function="internal">
    <lane id=":10411575_1_0" index="0" speed="8.33" length="23.28" shape="1371.87,2169.03 1367.32,2163.46 1364.90,2158.14 1364.63,2153.07 1366.49,2148.25" />
  </edge>
  <edge id=":10411575_2" function="internal">
    <lane id=":10411575_2_0" index="0" speed="3.68" length="4.80" shape="1371.87,2169.03 1371.27,2167.68 1371.36,2166.77 1372.14,2166.29 1373.62,2166.25" />
  </edge>
  <edge id=":10411575_3" function="internal">
    <lane id=":10411575_3_0" index="0" speed="8.33" length="19.09" shape="1369.72,2149.12 1368.07,2153.22 1368.17,2157.44 1370.02,2161.78 1373.62,2166.25" />
  </edge>
  <edge id=":10411575_4" function="internal">
    <lane id=":10411575_4_0" index="0" speed="8.33" length="23.84" shape="1369.72,2149.12 1365.30,2155.02 1360.64,2158.94 1355.75,2160.87 1350.63,2160.81" />
  </edge>
  <edge id=":10411575_5" function="internal">
    <lane id=":10411575_5_0" index="0" speed="3.71" length="4.88" shape="1369.72,2149.12 1368.58,2150.11 1367.67,2150.30 1366.97,2149.68 1366.49,2148.25" />
  </edge>
  <edge id=":10411575_6" function="internal">
    <lane id=":10411575_6_0" index="0" speed="8.33" length="19.44" shape="1350.83,2157.59 1355.08,2157.66 1359.11,2156.13 1362.91,2153.00 1366.49,2148.25" />
  </edge>
  <edge id=":10411575_7" function="internal">
    <lane id=":10411575_7_0" index="0" speed="8.33" length="24.53" shape="1350.83,2157.59 1355.96,2158.86 1362.74,2160.95 1369.27,2163.53 1373.62,2166.25" />
  </edge>
  <edge id=":10411575_8" function="internal">
    <lane id=":10411575_8_0" index="0" speed="3.66" length="4.72" shape="1350.83,2157.59 1351.99,2158.47 1352.34,2159.30 1351.89,2160.08 1350.63,2160.81" />
  </edge>
  <edge id=":10411627_0" function="internal">
    <lane id=":10411627_0_0" index="0" speed="13.89" length="1.44" shape="1098.23,2633.91 1097.82,2634.19 1097.53,2634.37 1097.23,2634.54 1096.78,2634.76" />
    <lane id=":10411627_0_1" index="1" speed="13.89" length="1.44" shape="1096.39,2631.28 1096.10,2631.49 1095.89,2631.62 1095.68,2631.74 1095.36,2631.90" />
  </edge>
  <edge id=":10411627_2" function="internal">
    <lane id=":10411627_2_0" index="0" speed="13.89" length="0.48" shape="1092.51,2626.17 1092.58,2626.13 1092.62,2626.11 1092.66,2626.08 1092.72,2626.04" />
    <lane id=":10411627_2_1" index="1" speed="13.89" length="0.48" shape="1093.94,2629.03 1094.13,2628.94 1094.26,2628.86 1094.38,2628.79 1094.56,2628.66" />
  </edge>
  <edge id=":10411989_0" function="internal">
    <lane id=":10411989_0_0" index="0" speed="10.93" length="22.05" shape="2264.13,3618.79 2258.57,3619.28 2254.01,3621.47 2250.44,3625.34 2247.87,3630.91" />
  </edge>
  <edge id=":10411989_1" function="internal">
    <lane id=":10411989_1_0" index="0" speed="13.89" length="36.76" shape="2264.41,3615.60 2227.74,3613.19" />
  </edge>
  <edge id=":10411989_2" function="internal">
    <lane id=":10411989_2_0" index="0" speed="11.68" length="2.28" shape="2264.41,3615.60 2262.19,3615.10" />
  </edge>
  <edge id=":10411989_3" function="internal">
    <lane id=":10411989_3_0" index="0" speed="3.65" length="1.28" shape="2264.41,3615.60 2263.42,3614.80" />
  </edge>
  <edge id=":10411989_18" function="internal">
    <lane id=":10411989_18_0" index="0" speed="11.68" length="29.03" shape="2262.19,3615.10 2256.59,3613.85 2251.17,3609.65 2248.14,3603.00 2247.50,3593.90" />
  </edge>
  <edge id=":10411989_19" function="internal">
    <lane id=":10411989_19_0" index="0" speed="3.65" length="3.40" shape="2263.42,3614.80 2263.29,3614.70 2262.96,3613.87 2263.43,3613.10 2264.69,3612.41" />
  </edge>
  <edge id=":10411989_4" function="internal">
    <lane id=":10411989_4_0" index="0" speed="10.16" length="23.46" shape="2250.68,3594.39 2251.29,3600.55 2253.87,3605.08 2258.43,3607.97 2264.97,3609.22" />
  </edge>
  <edge id=":10411989_5" function="internal">
    <lane id=":10411989_5_0" index="0" speed="13.89" length="36.59" shape="2250.68,3594.39 2250.56,3600.87 2250.32,3610.95 2249.56,3621.89 2247.87,3630.91" />
    <lane id=":10411989_5_1" index="1" speed="13.89" length="36.59" shape="2250.68,3594.39 2250.06,3600.77 2248.74,3610.66 2246.89,3621.40 2244.69,3630.33" />
  </edge>
  <edge id=":10411989_7" function="internal">
    <lane id=":10411989_7_0" index="0" speed="11.91" length="34.34" shape="2250.68,3594.39 2248.81,3603.59 2244.36,3609.80 2237.34,3612.99 2227.74,3613.19" />
  </edge>
  <edge id=":10411989_8" function="internal">
    <lane id=":10411989_8_0" index="0" speed="3.66" length="4.70" shape="2250.68,3594.39 2249.70,3595.46 2248.84,3595.73 2248.11,3595.21 2247.50,3593.90" />
  </edge>
  <edge id=":10411989_9" function="internal">
    <lane id=":10411989_9_0" index="0" speed="11.07" length="29.51" shape="2227.72,3609.97 2236.00,3609.81 2242.06,3607.07 2245.89,3601.77 2247.50,3593.90" />
  </edge>
  <edge id=":10411989_10" function="internal">
    <lane id=":10411989_10_0" index="0" speed="13.89" length="37.16" shape="2227.72,3609.97 2234.23,3610.02 2244.46,3609.60 2255.64,3609.18 2264.97,3609.22" />
    <lane id=":10411989_10_1" index="1" speed="13.89" length="37.16" shape="2227.72,3609.97 2264.69,3612.41" />
  </edge>
  <edge id=":10411989_12" function="internal">
    <lane id=":10411989_12_0" index="0" speed="11.07" length="32.28" shape="2227.72,3609.97 2237.18,3611.92 2243.39,3615.55 2246.01,3621.48 2244.69,3630.33" />
  </edge>
  <edge id=":10411989_13" function="internal">
    <lane id=":10411989_13_0" index="0" speed="3.66" length="4.71" shape="2227.72,3609.97 2228.93,3610.77 2229.34,3611.57 2228.94,3612.38 2227.74,3613.19" />
  </edge>
  <edge id=":10411989_14" function="internal">
    <lane id=":10411989_14_0" index="0" speed="9.41" length="22.98" shape="2238.34,3629.16 2239.39,3622.86 2237.98,3618.09 2234.09,3614.87 2227.74,3613.19" />
  </edge>
  <edge id=":10411989_15" function="internal">
    <lane id=":10411989_15_0" index="0" speed="13.89" length="36.47" shape="2238.34,3629.16 2241.03,3620.34 2243.97,3609.83 2246.39,3600.17 2247.50,3593.90" />
  </edge>
  <edge id=":10411989_16" function="internal">
    <lane id=":10411989_16_0" index="0" speed="12.98" length="31.45" shape="2241.52,3629.74 2245.19,3621.78 2250.27,3616.24 2256.78,3613.12 2264.69,3612.41" />
  </edge>
  <edge id=":10411989_17" function="internal">
    <lane id=":10411989_17_0" index="0" speed="3.66" length="2.36" shape="2241.52,3629.74 2242.53,3628.70 2243.39,3628.45" />
  </edge>
  <edge id=":10411989_20" function="internal">
    <lane id=":10411989_20_0" index="0" speed="3.66" length="2.36" shape="2243.39,3628.45 2244.12,3628.99 2244.69,3630.33" />
  </edge>
  <edge id=":10412016_0" function="internal">
    <lane id=":10412016_0_0" index="0" speed="10.14" length="22.57" shape="2241.85,3481.51 2240.40,3475.46 2237.43,3471.23 2232.92,3468.82 2226.88,3468.24" />
  </edge>
  <edge id=":10412016_1" function="internal">
    <lane id=":10412016_1_0" index="0" speed="13.89" length="32.60" shape="2241.85,3481.51 2241.19,3469.84 2241.72,3460.63 2243.45,3453.88 2246.37,3449.60" />
    <lane id=":10412016_1_1" index="1" speed="13.89" length="32.60" shape="2241.85,3481.51 2241.51,3471.41 2242.63,3463.02 2245.21,3456.33 2249.24,3451.35" />
  </edge>
  <edge id=":10412016_3" function="internal">
    <lane id=":10412016_3_0" index="0" speed="3.65" length="4.68" shape="2241.85,3481.51 2242.59,3480.27 2243.37,3479.83 2244.19,3480.19 2245.05,3481.35" />
  </edge>
  <edge id=":10412016_4" function="internal">
    <lane id=":10412016_4_0" index="0" speed="13.89" length="29.45" shape="2254.98,3454.85 2250.04,3460.25 2246.73,3466.47 2245.07,3473.51 2245.05,3481.35" />
  </edge>
  <edge id=":10412016_5" function="internal">
    <lane id=":10412016_5_0" index="0" speed="13.89" length="28.31" shape="2252.11,3453.10 2246.41,3457.66 2240.48,3461.34 2234.10,3463.88 2227.03,3465.03" />
  </edge>
  <edge id=":10412016_6" function="internal">
    <lane id=":10412016_6_0" index="0" speed="3.71" length="1.74" shape="2252.11,3453.10 2250.74,3453.74 2250.52,3453.72" />
  </edge>
  <edge id=":10412016_11" function="internal">
    <lane id=":10412016_11_0" index="0" speed="3.71" length="3.17" shape="2250.52,3453.72 2249.81,3453.66 2249.31,3452.86 2249.24,3451.35" />
  </edge>
  <edge id=":10412016_7" function="internal">
    <lane id=":10412016_7_0" index="0" speed="13.89" length="21.70" shape="2227.34,3458.61 2233.47,3457.92 2237.77,3456.38 2241.61,3453.71 2246.37,3449.60" />
    <lane id=":10412016_7_1" index="1" speed="13.89" length="25.00" shape="2227.19,3461.82 2233.78,3460.90 2239.13,3458.86 2244.01,3455.68 2249.24,3451.35" />
  </edge>
  <edge id=":10412016_9" function="internal">
    <lane id=":10412016_9_0" index="0" speed="11.58" length="2.37" shape="2227.19,3461.82 2229.54,3462.13" />
  </edge>
  <edge id=":10412016_10" function="internal">
    <lane id=":10412016_10_0" index="0" speed="3.66" length="1.26" shape="2227.19,3461.82 2228.20,3462.57" />
  </edge>
  <edge id=":10412016_12" function="internal">
    <lane id=":10412016_12_0" index="0" speed="11.58" length="27.37" shape="2229.54,3462.13 2234.26,3462.75 2239.59,3466.32 2243.19,3472.52 2245.05,3481.35" />
  </edge>
  <edge id=":10412016_13" function="internal">
    <lane id=":10412016_13_0" index="0" speed="3.66" length="3.43" shape="2228.20,3462.57 2228.35,3462.68 2228.72,3463.50 2228.27,3464.29 2227.03,3465.03" />
  </edge>
  <edge id=":10412067_0" function="internal">
    <lane id=":10412067_0_0" index="0" speed="12.50" length="24.06" shape="2358.10,3494.48 2353.75,3493.27 2348.16,3491.76 2341.86,3489.57 2335.36,3486.34" />
    <lane id=":10412067_0_1" index="1" speed="12.50" length="24.06" shape="2358.10,3494.48 2353.99,3492.84 2348.94,3490.36 2343.17,3487.21 2336.92,3483.54" />
  </edge>
  <edge id=":10412067_2" function="internal">
    <lane id=":10412067_2_0" index="0" speed="12.50" length="23.79" shape="2340.03,3477.94 2346.02,3482.03 2351.19,3486.11 2355.64,3489.50 2359.48,3491.56" />
  </edge>
  <edge id=":10536945833_0" function="internal">
    <lane id=":10536945833_0_0" index="0" disallow="pedestrian" speed="22.22" length="15.07" shape="3087.05,3337.89 3091.07,3339.59 3093.91,3340.50 3096.81,3341.28 3100.99,3342.55" />
    <lane id=":10536945833_0_1" index="1" disallow="pedestrian" speed="22.22" length="15.07" shape="3085.71,3340.80 3089.82,3342.54 3092.74,3343.48 3095.70,3344.28 3099.98,3345.59" />
    <lane id=":10536945833_0_2" index="2" disallow="pedestrian" speed="22.22" length="15.07" shape="3084.38,3343.71 3088.58,3345.49 3091.56,3346.46 3094.59,3347.28 3098.97,3348.63" />
  </edge>
  <edge id=":10586604074_0" function="internal">
    <lane id=":10586604074_0_0" index="0" disallow="pedestrian" speed="22.22" length="24.34" shape="1923.50,2856.22 1901.58,2845.66" />
    <lane id=":10586604074_0_1" index="1" disallow="pedestrian" speed="22.22" length="24.34" shape="1924.90,2853.34 1902.97,2842.78" />
    <lane id=":10586604074_0_2" index="2" disallow="pedestrian" speed="22.22" length="24.34" shape="1926.30,2850.46 1904.36,2839.89" />
  </edge>
  <edge id=":10586604074_3" function="internal">
    <lane id=":10586604074_3_0" index="0" disallow="pedestrian" speed="22.22" length="24.34" shape="1922.53,2858.21 1900.20,2848.54" />
  </edge>
  <edge id=":1067688346_0" function="internal">
    <lane id=":1067688346_0_0" index="0" speed="3.65" length="4.67" shape="2126.76,543.42 2127.91,542.55 2128.80,542.44 2129.42,543.08 2129.78,544.48" />
  </edge>
  <edge id=":1067688396_0" function="internal">