<?xml version='1.0' encoding='utf-8'?>
<edges>
  <edge id="-1248839127#0" numLanes="2" speed="11.11" />
  <edge id="-1248839127#1" numLanes="2" speed="11.11" />
  <edge id="-200498484" numLanes="2" speed="11.11" />
  <edge id="-27195187#0" numLanes="2" speed="11.11" />
  <edge id="-27195187#3" numLanes="2" speed="11.11" />
  <edge id="-277705937#1" numLanes="2" speed="11.11" />
  <edge id="-43216026" numLanes="2" speed="11.11" />
  <edge id="-47035940" numLanes="2" speed="11.11" />
  <edge id="-48017210#1" numLanes="2" speed="11.11" />
  <edge id="-48017210#10" numLanes="2" speed="11.11" />
  <edge id="-48017210#12" numLanes="2" speed="11.11" />
  <edge id="-48017210#14" numLanes="2" speed="11.11" />
  <edge id="-48017210#15" numLanes="2" speed="11.11" />
  <edge id="-48017210#17" numLanes="2" speed="11.11" />
  <edge id="-48017210#3" numLanes="2" speed="11.11" />
  <edge id="-48017210#5" numLanes="2" speed="11.11" />
  <edge id="-52754549" numLanes="2" speed="11.11" />
  <edge id="1077838537" numLanes="2" speed="11.11" />
  <edge id="1077838538" numLanes="2" speed="11.11" />
  <edge id="1077838551#1" numLanes="2" speed="11.11" />
  <edge id="1077840622" numLanes="2" speed="11.11" />
  <edge id="113815195" numLanes="2" speed="11.11" />
  <edge id="113815205" numLanes="2" speed="11.11" />
  <edge id="115505198#0" numLanes="2" speed="11.11" />
  <edge id="115505198#1" numLanes="2" speed="11.11" />
  <edge id="115505198#2" numLanes="2" speed="11.11" />
  <edge id="115505207" numLanes="2" speed="11.11" />
  <edge id="115505219" numLanes="2" speed="11.11" />
  <edge id="115505225" numLanes="2" speed="11.11" />
  <edge id="115505226" numLanes="2" speed="11.11" />
  <edge id="115505232" numLanes="2" speed="11.11" />
  <edge id="115505241" numLanes="2" speed="11.11" />
  <edge id="115505245" numLanes="2" speed="11.11" />
  <edge id="115505247" numLanes="2" speed="11.11" />
  <edge id="115505254" numLanes="2" speed="11.11" />
  <edge id="115505255" numLanes="2" speed="11.11" />
  <edge id="115505257" numLanes="2" speed="11.11" />
  <edge id="1248839127#0" numLanes="2" speed="11.11" />
  <edge id="1248839127#1" numLanes="2" speed="11.11" />
  <edge id="13795988" numLanes="2" speed="11.11" />
  <edge id="13797495" numLanes="2" speed="11.11" />
  <edge id="13797498" numLanes="2" speed="11.11" />
  <edge id="13798307#0" numLanes="2" speed="11.11" />
  <edge id="13798307#1" numLanes="2" speed="11.11" />
  <edge id="13798311#1" numLanes="2" speed="11.11" />
  <edge id="150887967" numLanes="2" speed="11.11" />
  <edge id="150887968" numLanes="2" speed="11.11" />
  <edge id="200498484" numLanes="2" speed="11.11" />
  <edge id="27195187#0" numLanes="2" speed="11.11" />
  <edge id="27195187#2" numLanes="2" speed="11.11" />
  <edge id="277705937#0" numLanes="2" speed="11.11" />
  <edge id="313965526" numLanes="2" speed="11.11" />
  <edge id="313965530#1" numLanes="2" speed="11.11" />
  <edge id="320581596#1" numLanes="2" speed="11.11" />
  <edge id="43216026" numLanes="2" speed="11.11" />
  <edge id="466495196" numLanes="2" speed="11.11" />
  <edge id="466495198" numLanes="2" speed="11.11" />
  <edge id="466495201#0" numLanes="2" speed="11.11" />
  <edge id="466495265#0" numLanes="2" speed="11.11" />
  <edge id="466495271#0" numLanes="2" speed="11.11" />
  <edge id="466495275" numLanes="2" speed="11.11" />
  <edge id="467782354#0" numLanes="2" speed="11.11" />
  <edge id="467782354#1" numLanes="2" speed="11.11" />
  <edge id="467782354#3" numLanes="2" speed="11.11" />
  <edge id="467782356" numLanes="2" speed="11.11" />
  <edge id="47035943" numLanes="2" speed="11.11" />
  <edge id="48017210#1" numLanes="2" speed="11.11" />
  <edge id="48017210#11" numLanes="2" speed="11.11" />
  <edge id="48017210#13" numLanes="2" speed="11.11" />
  <edge id="48017210#15" numLanes="2" speed="11.11" />
  <edge id="48017210#17" numLanes="2" speed="11.11" />
  <edge id="48017210#3" numLanes="2" speed="11.11" />
  <edge id="48017210#4" numLanes="2" speed="11.11" />
  <edge id="48017210#6" numLanes="2" speed="11.11" />
  <edge id="515410680#1" numLanes="2" speed="11.11" />
  <edge id="515410724#0" numLanes="2" speed="11.11" />
  <edge id="515410724#2" numLanes="2" speed="11.11" />
  <edge id="915918523" numLanes="2" speed="11.11" />
  <edge id="969642449" numLanes="2" speed="11.11" />
</edges>