<?xml version='1.0' encoding='utf-8'?>
<edges>
  <edge id="-47035940" numLanes="2" speed="11.11" />
  <edge id="-52754549" numLanes="3" speed="11.11" />
  <edge id="1077838537" numLanes="2" speed="11.11" />
  <edge id="1077838538" numLanes="3" speed="11.11" />
  <edge id="1077838551#1" numLanes="2" speed="11.11" />
  <edge id="1077840622" numLanes="3" speed="11.11" />
  <edge id="113815205" numLanes="3" speed="11.11" />
  <edge id="115505198#0" numLanes="3" speed="11.11" />
  <edge id="115505198#1" numLanes="3" speed="11.11" />
  <edge id="115505198#2" numLanes="2" speed="11.11" />
  <edge id="115505207" numLanes="3" speed="11.11" />
  <edge id="115505219" numLanes="2" speed="11.11" />
  <edge id="115505225" numLanes="2" speed="11.11" />
  <edge id="115505226" numLanes="2" speed="11.11" />
  <edge id="115505247" numLanes="3" speed="11.11" />
  <edge id="115505255" numLanes="2" speed="11.11" />
  <edge id="115505257" numLanes="3" speed="11.11" />
  <edge id="13795988" numLanes="3" speed="11.11" />
  <edge id="13797495" numLanes="2" speed="11.11" />
  <edge id="13797498" numLanes="3" speed="11.11" />
  <edge id="13798307#0" numLanes="2" speed="11.11" />
  <edge id="13798307#1" numLanes="2" speed="11.11" />
  <edge id="13798311#1" numLanes="3" speed="11.11" />
  <edge id="320581596#1" numLanes="3" speed="11.11" />
  <edge id="466495196" numLanes="2" speed="11.11" />
  <edge id="466495198" numLanes="2" speed="11.11" />
  <edge id="466495201#0" numLanes="2" speed="11.11" />
  <edge id="467782354#0" numLanes="2" speed="11.11" />
  <edge id="467782354#1" numLanes="2" speed="11.11" />
  <edge id="467782354#3" numLanes="2" speed="11.11" />
  <edge id="467782356" numLanes="3" speed="11.11" />
  <edge id="47035943" numLanes="3" speed="11.11" />
  <edge id="515410680#1" numLanes="2" speed="11.11" />
  <edge id="515410724#0" numLanes="3" speed="11.11" />
  <edge id="515410724#2" numLanes="3" speed="11.11" />
  <edge id="969642449" numLanes="3" speed="11.11" />
</edges>