<?xml version="1.0" encoding="UTF-8"?>

<!-- generated on 2026-03-15T21:15:41.850630+01:00 by Eclipse SUMO netconvert 1.26.0
<netconvertConfiguration xmlns:xsi="http://www.w3.org/2001/XMLSchema-instance" xsi:noNamespaceSchemaLocation="http://sumo.dlr.de/xsd/netconvertConfiguration.xsd">

    <input>
        <type-files value="/Users/damsleth/Code/SNV/network/osm/typemap.xml"/>
        <osm-files value="/Users/damsleth/Code/SNV/network/osm/fornebu.osm.xml"/>
    </input>

    <output>
        <output-file value="/Users/damsleth/Code/SNV/network/base/fornebu.net.xml"/>
        <plain-output-prefix value="/Users/damsleth/Code/SNV/network/base/fornebu"/>
        <output.street-names value="true"/>
        <output.original-names value="true"/>
    </output>

    <projection>
        <proj.utm value="true"/>
    </projection>

    <processing>
        <geometry.remove value="true"/>
        <roundabouts.guess value="true"/>
    </processing>

    <building_defaults>
        <default.junctions.radius value="12"/>
    </building_defaults>

    <ramp_guessing>
        <ramps.guess value="true"/>
    </ramp_guessing>

    <edge_removal>
        <keep-edges.by-vclass value="passenger"/>
        <remove-edges.by-type value="highway.footway,highway.cycleway,highway.path,highway.pedestrian,highway.steps,highway.service"/>
    </edge_removal>

    <junctions>
        <junctions.join value="true"/>
        <junctions.internal-link-detail value="5"/>
    </junctions>

</netconvertConfiguration>
-->

<connections version="1.20" xmlns:xsi="http://www.w3.org/2001/XMLSchema-instance" xsi:noNamespaceSchemaLocation="http://sumo.dlr.de/xsd/connections_file.xsd">
    <connection from="-1003915969" to="-169496171#6" fromLane="0" toLane="0"/>
    <connection from="-1003915969" to="169496171#7" fromLane="0" toLane="1"/>
    <connection from="-1003915969" to="1003915968" fromLane="0" toLane="0"/>

    <connection from="-1014336997" to="-53158895#1" fromLane="0" toLane="0"/>
    <connection from="-1014336997" to="53158895#2" fromLane="0" toLane="0"/>
    <connection from="-1014336997" to="-53158894" fromLane="0" toLane="0"/>

    <connection from="-1034626203" to="-61995046#1" fromLane="0" toLane="0"/>
    <connection from="-1034626203" to="61995046#2" fromLane="0" toLane="0"/>
    <connection from="-1034626203" to="1034626203" fromLane="0" toLane="0"/>

    <connection from="-1059460979" to="1059461027#0" fromLane="0" toLane="0"/>
    <connection from="-1059460979" to="-1273415469" fromLane="0" toLane="0"/>
    <connection from="-1059460979" to="150887966" fromLane="0" toLane="0"/>

    <connection from="-1059461015" to="715532040" fromLane="0" toLane="0"/>
    <connection from="-1059461015" to="715532040" fromLane="1" toLane="1"/>

    <connection from="-1059461016" to="-315957525#7" fromLane="0" toLane="0"/>

    <connection from="-1059461026" to="-1273415469" fromLane="0" toLane="0"/>
    <connection from="-1059461026" to="150887966" fromLane="0" toLane="0"/>
    <connection from="-1059461026" to="1059461027#0" fromLane="0" toLane="0"/>

    <connection from="-1059461029#5" to="-277933224#7" fromLane="0" toLane="0"/>
    <connection from="-1059461029#5" to="-150921841#5" fromLane="0" toLane="0"/>
    <connection from="-1059461029#5" to="-150921841#5" fromLane="1" toLane="1"/>
    <connection from="-1059461029#5" to="1059461029#0" fromLane="1" toLane="1"/>

    <connection from="-106270078#9" to="-1170402199#1" fromLane="0" toLane="0"/>
    <connection from="-106270078#9" to="-1059461029#5" fromLane="0" toLane="0"/>
    <connection from="-106270078#9" to="-1059461029#5" fromLane="0" toLane="1"/>
    <connection from="-106270078#9" to="150887964#0" fromLane="0" toLane="1"/>
    <connection from="-106270078#9" to="106270078#0" fromLane="0" toLane="0"/>

    <connection from="-106377266#5" to="169496171#10" fromLane="0" toLane="0"/>
    <connection from="-106377266#5" to="-169496171#9" fromLane="0" toLane="1"/>
    <connection from="-106377266#5" to="106377266#0" fromLane="0" toLane="0"/>

    <connection from="-106377266#8" to="-106377266#5" fromLane="0" toLane="0"/>
    <connection from="-106377266#8" to="106377269#0" fromLane="0" toLane="0"/>
    <connection from="-106377266#8" to="106377266#6" fromLane="0" toLane="0"/>

    <connection from="-106377269#40" to="106377266#6" fromLane="0" toLane="0"/>
    <connection from="-106377269#40" to="-106377266#5" fromLane="0" toLane="0"/>
    <connection from="-106377269#40" to="106377269#0" fromLane="0" toLane="0"/>

    <connection from="-106377272#9" to="169496171#5" fromLane="0" toLane="0"/>
    <connection from="-106377272#9" to="-169496171#4" fromLane="0" toLane="1"/>
    <connection from="-106377272#9" to="106377272#0" fromLane="0" toLane="0"/>

    <connection from="-109922403" to="-97122644#5" fromLane="0" toLane="0"/>
    <connection from="-109922403" to="97122644#6" fromLane="0" toLane="0"/>
    <connection from="-109922403" to="109922403" fromLane="0" toLane="0"/>

    <connection from="-110152638#0" to="110152638#0" fromLane="1" toLane="1"/>

    <connection from="-110152638#2" to="69974401#0" fromLane="0" toLane="0"/>
    <connection from="-110152638#2" to="-110152638#0" fromLane="0" toLane="0"/>
    <connection from="-110152638#2" to="-110152638#0" fromLane="1" toLane="1"/>
    <connection from="-110152638#2" to="110152638#1" fromLane="1" toLane="1"/>

    <connection from="-110152638#4" to="971520462#0" fromLane="0" toLane="0"/>
    <connection from="-110152638#4" to="-110152638#2" fromLane="0" toLane="0"/>
    <connection from="-110152638#4" to="-110152638#2" fromLane="1" toLane="1"/>
    <connection from="-110152638#4" to="110152638#3" fromLane="1" toLane="1"/>

    <connection from="-1102867612" to="1375619897" fromLane="0" toLane="0"/>

    <connection from="-1102867613#6" to="31665217#1" fromLane="0" toLane="0"/>
    <connection from="-1102867613#6" to="-1375619897" fromLane="0" toLane="0"/>
    <connection from="-1102867613#6" to="-31665217#0" fromLane="0" toLane="0"/>

    <connection from="-113813264" to="113813266#0" fromLane="0" toLane="0"/>
    <connection from="-113813264" to="-277705918#2" fromLane="0" toLane="0"/>
    <connection from="-113813264" to="113813264" fromLane="0" toLane="0"/>

    <connection from="-113813266#1" to="-277705918#2" fromLane="0" toLane="0"/>
    <connection from="-113813266#1" to="113813264" fromLane="0" toLane="0"/>
    <connection from="-113813266#1" to="113813266#0" fromLane="0" toLane="0"/>

    <connection from="-113813267" to="-150888042" fromLane="0" toLane="0"/>
    <connection from="-113813267" to="-150888042" fromLane="0" toLane="1"/>
    <connection from="-113813267" to="-27220259" fromLane="0" toLane="0"/>
    <connection from="-113813267" to="113813267" fromLane="0" toLane="0"/>

    <connection from="-113813268#0" to="970553231" fromLane="0" toLane="0"/>
    <connection from="-113813268#0" to="970553231" fromLane="1" toLane="1"/>

    <connection from="-113813268#1" to="-113813268#0" fromLane="0" toLane="0"/>
    <connection from="-113813268#1" to="-113813268#0" fromLane="1" toLane="1"/>
    <connection from="-113813268#1" to="70431192#0" fromLane="1" toLane="0"/>
    <connection from="-113813268#1" to="113813268#1" fromLane="1" toLane="1"/>

    <connection from="-113813274#4" to="70431189" fromLane="0" toLane="0"/>
    <connection from="-113813274#4" to="-71736136#1" fromLane="0" toLane="0"/>
    <connection from="-113813274#4" to="113813274#0" fromLane="0" toLane="0"/>

    <connection from="-113815188#4" to="-113815198#7" fromLane="0" toLane="0"/>
    <connection from="-113815188#4" to="113815198#8" fromLane="0" toLane="0"/>
    <connection from="-113815188#4" to="113815188#0" fromLane="0" toLane="0"/>

    <connection from="-113815192" to="-28705817#3" fromLane="0" toLane="0"/>
    <connection from="-113815192" to="37092804#0" fromLane="0" toLane="0"/>
    <connection from="-113815192" to="113815192" fromLane="0" toLane="0"/>

    <connection from="-113815197#1" to="113815198#0" fromLane="0" toLane="0"/>
    <connection from="-113815197#1" to="-28706079#11" fromLane="0" toLane="0"/>
    <connection from="-113815197#1" to="113815197#0" fromLane="0" toLane="0"/>

    <connection from="-113815197#2" to="-113815197#1" fromLane="0" toLane="0"/>
    <connection from="-113815197#2" to="277653630#0" fromLane="0" toLane="0"/>
    <connection from="-113815197#2" to="113815197#2" fromLane="0" toLane="0"/>

    <connection from="-113815198#7" to="-28706079#11" fromLane="0" toLane="0"/>
    <connection from="-113815198#7" to="113815197#0" fromLane="0" toLane="0"/>
    <connection from="-113815198#7" to="113815198#0" fromLane="0" toLane="0"/>

    <connection from="-113815198#9" to="113815188#0" fromLane="0" toLane="0"/>
    <connection from="-113815198#9" to="-113815198#7" fromLane="0" toLane="0"/>
    <connection from="-113815198#9" to="113815198#8" fromLane="0" toLane="0"/>

    <connection from="-113815199#1" to="-1387780142" fromLane="0" toLane="0"/>
    <connection from="-113815199#1" to="13773369" fromLane="0" toLane="0"/>
    <connection from="-113815199#1" to="13773369" fromLane="0" toLane="1"/>
    <connection from="-113815199#1" to="113815199#0" fromLane="0" toLane="0"/>

    <connection from="-113815204" to="-1102867613#6" fromLane="0" toLane="0"/>
    <connection from="-113815204" to="970553178#0" fromLane="0" toLane="0"/>
    <connection from="-113815204" to="113815204" fromLane="0" toLane="0"/>

    <connection from="-113815207#0" to="818010615#0" fromLane="0" toLane="0"/>

    <connection from="-113815207#1" to="-113815207#0" fromLane="0" toLane="0"/>
    <connection from="-113815207#1" to="970553283" fromLane="0" toLane="0"/>
    <connection from="-113815207#1" to="113815207#1" fromLane="0" toLane="0"/>

    <connection from="-113815207#3" to="131356012#0" fromLane="0" toLane="0"/>
    <connection from="-113815207#3" to="-113815207#1" fromLane="0" toLane="0"/>
    <connection from="-113815207#3" to="61995046#1" fromLane="0" toLane="0"/>
    <connection from="-113815207#3" to="61995048#0" fromLane="0" toLane="0"/>
    <connection from="-113815207#3" to="113815207#3" fromLane="0" toLane="0"/>

    <connection from="-113815207#4" to="61995043#0" fromLane="0" toLane="0"/>
    <connection from="-113815207#4" to="-113815207#3" fromLane="0" toLane="0"/>
    <connection from="-113815207#4" to="113815207#4" fromLane="0" toLane="0"/>

    <connection from="-113815207#7" to="277705943#1" fromLane="0" toLane="0"/>
    <connection from="-113815207#7" to="-113815207#4" fromLane="0" toLane="0"/>
    <connection from="-113815207#7" to="113815207#6" fromLane="0" toLane="0"/>

    <connection from="-113815207#8" to="-113815207#7" fromLane="0" toLane="0"/>
    <connection from="-113815207#8" to="133486243" fromLane="0" toLane="0"/>
    <connection from="-113815207#8" to="113815207#8" fromLane="0" toLane="0"/>

    <connection from="-113815207#9" to="61995044#0" fromLane="0" toLane="0"/>
    <connection from="-113815207#9" to="-113815207#8" fromLane="0" toLane="0"/>
    <connection from="-113815207#9" to="113815207#9" fromLane="0" toLane="0"/>

    <connection from="-115505244#0" to="115505259" fromLane="0" toLane="0"/>

    <connection from="-115505244#1" to="-115505244#0" fromLane="0" toLane="0"/>
    <connection from="-115505244#1" to="267365550" fromLane="0" toLane="0"/>
    <connection from="-115505244#1" to="115505244#1" fromLane="0" toLane="0"/>

    <connection from="-1159710207" to="-37092803#1" fromLane="0" toLane="0"/>
    <connection from="-1159710207" to="1162849796" fromLane="0" toLane="0"/>
    <connection from="-1159710207" to="1159710207" fromLane="0" toLane="0"/>

    <connection from="-1162849796" to="1159710207" fromLane="0" toLane="0"/>
    <connection from="-1162849796" to="-37092803#1" fromLane="0" toLane="0"/>
    <connection from="-1162849796" to="1162849796" fromLane="0" toLane="0"/>

    <connection from="-1170402199#0" to="-169496171#9" fromLane="0" toLane="0"/>
    <connection from="-1170402199#0" to="-169496171#9" fromLane="1" toLane="1"/>
    <connection from="-1170402199#0" to="106377266#0" fromLane="1" toLane="0"/>
    <connection from="-1170402199#0" to="169496171#10" fromLane="1" toLane="1"/>

    <connection from="-1170402199#1" to="-1260596632" fromLane="0" toLane="0"/>
    <connection from="-1170402199#1" to="-1170402199#0" fromLane="0" toLane="0"/>
    <connection from="-1170402199#1" to="-1170402199#0" fromLane="1" toLane="1"/>
    <connection from="-1170402199#1" to="1170402199#1" fromLane="1" toLane="1"/>

    <connection from="-117206743#0" to="-69974405#2" fromLane="0" toLane="0"/>
    <connection from="-117206743#0" to="69974405#3" fromLane="0" toLane="0"/>
    <connection from="-117206743#0" to="117206743#0" fromLane="0" toLane="0"/>

    <connection from="-117206743#1" to="117206746" fromLane="0" toLane="0"/>
    <connection from="-117206743#1" to="-117206743#0" fromLane="0" toLane="0"/>
    <connection from="-117206743#1" to="117206743#1" fromLane="0" toLane="0"/>

    <connection from="-117206746" to="-117206743#0" fromLane="0" toLane="0"/>
    <connection from="-117206746" to="117206743#1" fromLane="0" toLane="0"/>
    <connection from="-117206746" to="117206746" fromLane="0" toLane="0"/>

    <connection from="-117206747" to="1356120878#3" fromLane="0" toLane="0"/>
    <connection from="-117206747" to="-1356120878#2" fromLane="0" toLane="0"/>
    <connection from="-117206747" to="117206747" fromLane="0" toLane="0"/>

    <connection from="-117213874" to="117213874" fromLane="0" toLane="0"/>

    <connection from="-117213884" to="-27194661#9" fromLane="0" toLane="0"/>
    <connection from="-117213884" to="27194661#10" fromLane="0" toLane="0"/>
    <connection from="-117213884" to="117213884" fromLane="0" toLane="0"/>

    <connection from="-117335733#1" to="-113815207#9" fromLane="0" toLane="0"/>
    <connection from="-117335733#1" to="339230500" fromLane="0" toLane="0"/>
    <connection from="-117335733#1" to="117335733#0" fromLane="0" toLane="0"/>

    <connection from="-1180739476" to="-150887963#4" fromLane="0" toLane="0"/>
    <connection from="-1180739476" to="-150887963#4" fromLane="1" toLane="1"/>

    <connection from="-1248839127#0" to="115505254" fromLane="0" toLane="0"/>
    <connection from="-1248839127#0" to="1248839127#0" fromLane="0" toLane="0"/>

    <connection from="-1248839127#1" to="-1248839127#0" fromLane="0" toLane="0"/>
    <connection from="-1248839127#1" to="142321653#0" fromLane="0" toLane="0"/>
    <connection from="-1248839127#1" to="1248839127#1" fromLane="0" toLane="0"/>

    <connection from="-1260596632" to="1260596632" fromLane="0" toLane="0"/>

    <connection from="-1273415469" to="150887965" fromLane="0" toLane="0"/>

    <connection from="-1278491335" to="1278491335" fromLane="0" toLane="0"/>

    <connection from="-128877220" to="-150887962" fromLane="0" toLane="0"/>
    <connection from="-128877220" to="-150887962" fromLane="1" toLane="1"/>

    <connection from="-128877221#2" to="150927280" fromLane="0" toLane="0"/>
    <connection from="-128877221#2" to="150927280" fromLane="1" toLane="1"/>
    <connection from="-128877221#2" to="128877221#0" fromLane="1" toLane="1"/>

    <connection from="-128877221#4" to="-261824959#1" fromLane="0" toLane="0"/>
    <connection from="-128877221#4" to="-128877221#2" fromLane="0" toLane="0"/>
    <connection from="-128877221#4" to="-128877221#2" fromLane="1" toLane="1"/>
    <connection from="-128877221#4" to="128877273" fromLane="1" toLane="0"/>
    <connection from="-128877221#4" to="128877221#4" fromLane="1" toLane="1"/>

    <connection from="-128877226#2" to="128877225#1" fromLane="0" toLane="0"/>
    <connection from="-128877226#2" to="128877224#1" fromLane="0" toLane="1"/>
    <connection from="-128877226#2" to="128877226#1" fromLane="0" toLane="0"/>

    <connection from="-128877237#1" to="128877237#0" fromLane="0" toLane="0"/>

    <connection from="-128877273" to="128877221#4" fromLane="0" toLane="0"/>
    <connection from="-128877273" to="-261824959#1" fromLane="0" toLane="0"/>
    <connection from="-128877273" to="-128877221#2" fromLane="0" toLane="1"/>
    <connection from="-128877273" to="128877273" fromLane="0" toLane="0"/>

    <connection from="-129927604#4" to="73067937#1" fromLane="0" toLane="0"/>
    <connection from="-129927604#4" to="1059460997" fromLane="0" toLane="1"/>
    <connection from="-129927604#4" to="-28404767#0" fromLane="0" toLane="0"/>

    <connection from="-131350733#3" to="1319560737" fromLane="0" toLane="0"/>
    <connection from="-131350733#3" to="-113815204" fromLane="0" toLane="0"/>
    <connection from="-131350733#3" to="988287807" fromLane="0" toLane="0"/>

    <connection from="-131350733#4" to="987353944" fromLane="0" toLane="0"/>
    <connection from="-131350733#4" to="-131350733#3" fromLane="0" toLane="0"/>
    <connection from="-131350733#4" to="131350733#4" fromLane="0" toLane="0"/>

    <connection from="-131350733#6" to="896458673" fromLane="0" toLane="0"/>
    <connection from="-131350733#6" to="-131350733#4" fromLane="0" toLane="0"/>
    <connection from="-131350733#6" to="-896458672" fromLane="0" toLane="0"/>
    <connection from="-131350733#6" to="131350733#6" fromLane="0" toLane="0"/>

    <connection from="-131350733#7" to="-807327325" fromLane="0" toLane="0"/>
    <connection from="-131350733#7" to="-131350733#6" fromLane="0" toLane="0"/>
    <connection from="-131350733#7" to="131350733#7" fromLane="0" toLane="0"/>

    <connection from="-131354205" to="131354205" fromLane="0" toLane="0"/>

    <connection from="-131354707#1" to="71736136#1" fromLane="0" toLane="0"/>
    <connection from="-131354707#1" to="-71736136#0" fromLane="0" toLane="0"/>
    <connection from="-131354707#1" to="131354707#0" fromLane="0" toLane="0"/>

    <connection from="-131356012#1" to="-113815207#1" fromLane="0" toLane="0"/>
    <connection from="-131356012#1" to="61995046#1" fromLane="0" toLane="0"/>
    <connection from="-131356012#1" to="61995048#0" fromLane="0" toLane="0"/>
    <connection from="-131356012#1" to="113815207#3" fromLane="0" toLane="0"/>
    <connection from="-131356012#1" to="131356012#0" fromLane="0" toLane="0"/>

    <connection from="-1314722341" to="-28705628#0" fromLane="0" toLane="0"/>
    <connection from="-1314722341" to="333083964#0" fromLane="0" toLane="0"/>
    <connection from="-1314722341" to="28705628#1" fromLane="0" toLane="0"/>

    <connection from="-1314722342" to="1314722342" fromLane="0" toLane="0"/>

    <connection from="-1319560737" to="-113815204" fromLane="0" toLane="0"/>
    <connection from="-1319560737" to="988287807" fromLane="0" toLane="0"/>
    <connection from="-1319560737" to="1319560737" fromLane="0" toLane="0"/>

    <connection from="-133486242" to="277705918#0" fromLane="0" toLane="0"/>

    <connection from="-133486243" to="113815207#8" fromLane="0" toLane="0"/>
    <connection from="-133486243" to="-113815207#7" fromLane="0" toLane="0"/>
    <connection from="-133486243" to="133486243" fromLane="0" toLane="0"/>

    <connection from="-133659332#1" to="230204532" fromLane="0" toLane="0"/>
    <connection from="-133659332#1" to="-749988693" fromLane="0" toLane="0"/>
    <connection from="-133659332#1" to="133659332#0" fromLane="0" toLane="0"/>

    <connection from="-1356120878#0" to="150882065#0" fromLane="0" toLane="0"/>
    <connection from="-1356120878#0" to="1356120878#0" fromLane="0" toLane="0"/>

    <connection from="-1356120878#2" to="-117206743#1" fromLane="0" toLane="0"/>
    <connection from="-1356120878#2" to="-1356120878#0" fromLane="0" toLane="0"/>
    <connection from="-1356120878#2" to="150882064#0" fromLane="0" toLane="0"/>
    <connection from="-1356120878#2" to="1356120878#2" fromLane="0" toLane="0"/>

    <connection from="-1356120878#3" to="-1356120878#2" fromLane="0" toLane="0"/>
    <connection from="-1356120878#3" to="117206747" fromLane="0" toLane="0"/>
    <connection from="-1356120878#3" to="1356120878#3" fromLane="0" toLane="0"/>

    <connection from="-136626069" to="-28404834#2" fromLane="0" toLane="0"/>
    <connection from="-136626069" to="338178485#0" fromLane="0" toLane="0"/>
    <connection from="-136626069" to="220529076" fromLane="0" toLane="0"/>

    <connection from="-1375619879#1" to="-1375619897" fromLane="0" toLane="0"/>
    <connection from="-1375619879#1" to="-31665217#0" fromLane="0" toLane="0"/>
    <connection from="-1375619879#1" to="31665217#1" fromLane="0" toLane="0"/>

    <connection from="-1375619879#2" to="-1375619879#1" fromLane="0" toLane="0"/>
    <connection from="-1375619879#2" to="-1319560737" fromLane="0" toLane="0"/>
    <connection from="-1375619879#2" to="1375619879#2" fromLane="0" toLane="0"/>

    <connection from="-1375619897" to="1102867612" fromLane="0" toLane="0"/>

    <connection from="-13773369" to="113815199#0" fromLane="0" toLane="0"/>
    <connection from="-13773369" to="-1387780142" fromLane="1" toLane="1"/>
    <connection from="-13773369" to="13773369" fromLane="1" toLane="1"/>

    <connection from="-1387780141" to="-69878375#1" fromLane="0" toLane="0"/>
    <connection from="-1387780141" to="-199053542#1" fromLane="0" toLane="0"/>
    <connection from="-1387780141" to="-199053542#1" fromLane="1" toLane="1"/>
    <connection from="-1387780141" to="1387780141" fromLane="1" toLane="1"/>

    <connection from="-1387780142" to="-199053546#11" fromLane="0" toLane="0"/>
    <connection from="-1387780142" to="-199053546#11" fromLane="1" toLane="1"/>

    <connection from="-142321653#4" to="1248839127#1" fromLane="0" toLane="0"/>
    <connection from="-142321653#4" to="-1248839127#0" fromLane="0" toLane="0"/>
    <connection from="-142321653#4" to="142321653#0" fromLane="0" toLane="0"/>

    <connection from="-1456711453" to="150882066" fromLane="0" toLane="0"/>

    <connection from="-1457864036" to="401685145" fromLane="0" toLane="0"/>

    <connection from="-1461854843" to="-333083964#6" fromLane="0" toLane="0"/>
    <connection from="-1461854843" to="333083964#7" fromLane="0" toLane="0"/>
    <connection from="-1461854843" to="1461854843" fromLane="0" toLane="0"/>

    <connection from="-1461854845" to="333083964#5" fromLane="0" toLane="0"/>
    <connection from="-1461854845" to="-333083964#4" fromLane="0" toLane="0"/>
    <connection from="-1461854845" to="1461854845" fromLane="0" toLane="0"/>

    <connection from="-1461854846" to="333083964#2" fromLane="0" toLane="0"/>
    <connection from="-1461854846" to="-333083964#1" fromLane="0" toLane="0"/>
    <connection from="-1461854846" to="-333083964#7" fromLane="0" toLane="0"/>
    <connection from="-1461854846" to="1461854846" fromLane="0" toLane="0"/>

    <connection from="-1480406410#1" to="27184811#0" fromLane="0" toLane="0"/>

    <connection from="-1489072649" to="-37092796#9" fromLane="0" toLane="0"/>

    <connection from="-1489072650#0" to="-53158890#3" fromLane="0" toLane="0"/>

    <connection from="-1489072651#0" to="-896458673" fromLane="0" toLane="0"/>
    <connection from="-1489072651#0" to="53158890#1" fromLane="0" toLane="0"/>
    <connection from="-1489072651#0" to="-53158890#0" fromLane="0" toLane="0"/>

    <connection from="-1489072651#1" to="-987353944" fromLane="0" toLane="0"/>
    <connection from="-1489072651#1" to="-1489072651#0" fromLane="0" toLane="0"/>
    <connection from="-1489072651#1" to="1489072651#1" fromLane="0" toLane="0"/>

    <connection from="-150882063#1" to="-150882065#2" fromLane="0" toLane="0"/>
    <connection from="-150882063#1" to="150882065#3" fromLane="0" toLane="0"/>
    <connection from="-150882063#1" to="150882063#0" fromLane="0" toLane="0"/>

    <connection from="-150882064#1" to="1356120878#2" fromLane="0" toLane="0"/>
    <connection from="-150882064#1" to="-117206743#1" fromLane="0" toLane="0"/>
    <connection from="-150882064#1" to="-1356120878#0" fromLane="0" toLane="0"/>
    <connection from="-150882064#1" to="150882064#0" fromLane="0" toLane="0"/>

    <connection from="-150882065#2" to="1356120878#0" fromLane="0" toLane="0"/>
    <connection from="-150882065#2" to="150882065#0" fromLane="0" toLane="0"/>

    <connection from="-150882065#4" to="150882063#0" fromLane="0" toLane="0"/>
    <connection from="-150882065#4" to="-150882065#2" fromLane="0" toLane="0"/>
    <connection from="-150882065#4" to="150882065#3" fromLane="0" toLane="0"/>

    <connection from="-150883584" to="-27194661#8" fromLane="0" toLane="0"/>
    <connection from="-150883584" to="-69879015" fromLane="0" toLane="0"/>
    <connection from="-150883584" to="27194661#9" fromLane="0" toLane="0"/>
    <connection from="-150883584" to="150883584" fromLane="0" toLane="0"/>

    <connection from="-150887961#6" to="-92221927" fromLane="0" toLane="0"/>
    <connection from="-150887961#6" to="150921841#0" fromLane="0" toLane="1"/>
    <connection from="-150887961#6" to="150887961#0" fromLane="0" toLane="0"/>

    <connection from="-150887962" to="-150887969#2" fromLane="0" toLane="0"/>
    <connection from="-150887962" to="-150887969#2" fromLane="1" toLane="1"/>

    <connection from="-150887963#4" to="150888036#3" fromLane="0" toLane="0"/>
    <connection from="-150887963#4" to="150888036#3" fromLane="1" toLane="1"/>

    <connection from="-150887964#11" to="106270078#0" fromLane="0" toLane="0"/>
    <connection from="-150887964#11" to="-1170402199#1" fromLane="0" toLane="0"/>
    <connection from="-150887964#11" to="-1170402199#1" fromLane="1" toLane="1"/>
    <connection from="-150887964#11" to="-1059461029#5" fromLane="1" toLane="1"/>
    <connection from="-150887964#11" to="150887964#0" fromLane="1" toLane="1"/>

    <connection from="-150887969#1" to="128877224#0" fromLane="0" toLane="0"/>
    <connection from="-150887969#1" to="128877224#0" fromLane="1" toLane="1"/>

    <connection from="-150887969#2" to="-150887969#1" fromLane="0" toLane="0"/>
    <connection from="-150887969#2" to="-150887969#1" fromLane="1" toLane="1"/>
    <connection from="-150887969#2" to="-128877237#1" fromLane="1" toLane="0"/>
    <connection from="-150887969#2" to="150887969#2" fromLane="1" toLane="1"/>

    <connection from="-150888042" to="-150888043" fromLane="0" toLane="0"/>
    <connection from="-150888042" to="-150888043" fromLane="1" toLane="1"/>

    <connection from="-150888043" to="150888036#1" fromLane="0" toLane="0"/>
    <connection from="-150888043" to="150888036#1" fromLane="1" toLane="1"/>

    <connection from="-150921841#3" to="150887961#0" fromLane="0" toLane="0"/>
    <connection from="-150921841#3" to="-92221927" fromLane="0" toLane="0"/>
    <connection from="-150921841#3" to="-92221927" fromLane="1" toLane="1"/>
    <connection from="-150921841#3" to="150921841#0" fromLane="1" toLane="1"/>

    <connection from="-150921841#5" to="-106377266#8" fromLane="0" toLane="0"/>
    <connection from="-150921841#5" to="-150921841#3" fromLane="0" toLane="0"/>
    <connection from="-150921841#5" to="-150921841#3" fromLane="1" toLane="1"/>
    <connection from="-150921841#5" to="150921841#4" fromLane="1" toLane="1"/>

    <connection from="-150976293" to="150976297" fromLane="0" toLane="0"/>
    <connection from="-150976293" to="150976293" fromLane="0" toLane="0"/>

    <connection from="-154997393#0" to="115505245" fromLane="0" toLane="0"/>
    <connection from="-154997393#0" to="48017210#1" fromLane="0" toLane="0"/>
    <connection from="-154997393#0" to="154997393#0" fromLane="0" toLane="0"/>

    <connection from="-154997393#1" to="-154997393#2" fromLane="0" toLane="0"/>
    <connection from="-154997393#1" to="-154997393#0" fromLane="0" toLane="0"/>
    <connection from="-154997393#1" to="154997393#1" fromLane="0" toLane="0"/>

    <connection from="-154997393#2" to="-154997393#1" fromLane="0" toLane="0"/>
    <connection from="-154997393#2" to="-1480406410#1" fromLane="0" toLane="0"/>
    <connection from="-154997393#2" to="154997393#2" fromLane="0" toLane="0"/>

    <connection from="-154997397#2" to="277705927#0" fromLane="0" toLane="0"/>
    <connection from="-154997397#2" to="-43216023#1" fromLane="0" toLane="0"/>
    <connection from="-154997397#2" to="154997397#0" fromLane="0" toLane="0"/>

    <connection from="-154997398" to="-818008068#1" fromLane="0" toLane="0"/>
    <connection from="-154997398" to="-154997397#2" fromLane="0" toLane="0"/>
    <connection from="-154997398" to="818008068#2" fromLane="0" toLane="0"/>
    <connection from="-154997398" to="154997398" fromLane="0" toLane="0"/>

    <connection from="-154997400" to="-43216009#0" fromLane="0" toLane="0"/>
    <connection from="-154997400" to="43216010" fromLane="0" toLane="0"/>
    <connection from="-154997400" to="43216009#1" fromLane="0" toLane="0"/>
    <connection from="-154997400" to="154997400" fromLane="0" toLane="0"/>

    <connection from="-154997401" to="154997400" fromLane="0" toLane="0"/>
    <connection from="-154997401" to="-43216009#0" fromLane="0" toLane="0"/>
    <connection from="-154997401" to="43216010" fromLane="0" toLane="0"/>
    <connection from="-154997401" to="43216009#1" fromLane="0" toLane="0"/>

    <connection from="-169496171#4" to="-1059461026" fromLane="0" toLane="0"/>

    <connection from="-169496171#6" to="-169496171#4" fromLane="0" toLane="0"/>
    <connection from="-169496171#6" to="-169496171#4" fromLane="1" toLane="1"/>
    <connection from="-169496171#6" to="106377272#0" fromLane="1" toLane="0"/>
    <connection from="-169496171#6" to="169496171#5" fromLane="1" toLane="1"/>

    <connection from="-169496171#9" to="1003915968" fromLane="0" toLane="0"/>
    <connection from="-169496171#9" to="-169496171#6" fromLane="0" toLane="0"/>
    <connection from="-169496171#9" to="-169496171#6" fromLane="1" toLane="1"/>
    <connection from="-169496171#9" to="169496171#7" fromLane="1" toLane="1"/>

    <connection from="-169520861#0" to="-1356120878#3" fromLane="0" toLane="0"/>

    <connection from="-169520861#3" to="-117206746" fromLane="0" toLane="0"/>