<?xml version="1.0" encoding="UTF-8"?>

<!-- generated on 2026-03-16T11:14:12.541428+01:00 by Eclipse SUMO netconvert 1.26.0
<netconvertConfiguration xmlns:xsi="http://www.w3.org/2001/XMLSchema-instance" xsi:noNamespaceSchemaLocation="http://sumo.dlr.de/xsd/netconvertConfiguration.xsd">

    <input>
        <type-files value="/Users/damsleth/Code/SNV/network/osm/typemap.xml"/>
        <osm-files value="/Users/damsleth/Code/SNV/network/osm/fornebu.osm.xml"/>
    </input>

    <output>
        <output-file value="/Users/damsleth/Code/SNV/network/base/fornebu.net.xml"/>
        <plain-output-prefix value="/Users/damsleth/Code/SNV/network/base/fornebu"/>
        <output.street-names value="true"/>
        <output.original-names value="true"/>
    </output>

    <projection>
        <proj.utm value="true"/>
    </projection>

    <processing>
        <geometry.remove value="true"/>
        <roundabouts.guess value="true"/>
    </processing>

    <building_defaults>
        <default.junctions.radius value="12"/>
    </building_defaults>

    <ramp_guessing>
        <ramps.guess value="true"/>
    </ramp_guessing>

    <edge_removal>
        <keep-edges.by-vclass value="passenger"/>
        <remove-edges.by-type value="highway.footway,highway.cycleway,highway.path,highway.pedestrian,highway.steps,highway.service"/>
    </edge_removal>

    <junctions>
        <junctions.join value="true"/>
        <junctions.internal-link-detail value="5"/>
    </junctions>

</netconvertConfiguration>
-->

<tlLogics version="1.20" xmlns:xsi="http://www.w3.org/2001/XMLSchema-instance" xsi:noNamespaceSchemaLocation="http://sumo.dlr.de/xsd/tllogic_file.xsd">
    <tlLogic id="1304784165" type="static" programID="0" offset="0">
        <phase duration="81" state="GG"/>
        <phase duration="4"  state="yy"/>
        <phase duration="5"  state="rr"/>
    </tlLogic>
    <tlLogic id="1304784583" type="static" programID="0" offset="0">
        <phase duration="81" state="GG"/>
        <phase duration="4"  state="yy"/>
        <phase duration="5"  state="rr"/>
    </tlLogic>
    <tlLogic id="9882176370" type="static" programID="0" offset="0">
        <phase duration="81" state="GG"/>
        <phase duration="4"  state="yy"/>
        <phase duration="5"  state="rr"/>
    </tlLogic>
    <tlLogic id="cluster_128500630_263260468_3200088777_3200088778_#5more" type="static" programID="0" offset="0">
        <phase duration="28" state="rrrrGGGGggrrrrGGGgg"/>
        <phase duration="4"  state="rrrryyyyggrrrryyygg"/>
        <phase duration="6"  state="rrrrrrrrGGrrrrrrrGG"/>
        <phase duration="4"  state="rrrrrrrryyrrrrrrryy"/>
        <phase duration="1"  state="rrrrrrrrrrrrrrrrrrr"/>
        <phase duration="28" state="GGGgrrrrrrggggrrrrr"/>
        <phase duration="4"  state="yyyyrrrrrrggggrrrrr"/>
        <phase duration="6"  state="rrrrrrrrrrGGGGrrrrr"/>
        <phase duration="4"  state="rrrrrrrrrryyyyrrrrr"/>
        <phase duration="5"  state="rrrrrrrrrrrrrrrrrrr"/>
    </tlLogic>
    <tlLogic id="cluster_1304783852_1304784217_1304784254_1304784340_#2more" type="static" programID="0" offset="0">
        <phase duration="36" state="GGGggrrrrrGGGGg"/>
        <phase duration="4"  state="GGGggrrrrryyyyy"/>
        <phase duration="6"  state="GGGGGrrrrrrrrrr"/>
        <phase duration="4"  state="yyyyyrrrrrrrrrr"/>
        <phase duration="36" state="rrrrrGGGGgGrrrr"/>
        <phase duration="4"  state="rrrrryyyyyGrrrr"/>
    </tlLogic>
    <tlLogic id="cluster_1304784162_1304784228_3200087226_3200087231_#6more" type="static" programID="0" offset="0">
        <phase duration="41" state="GGGgGGrrr"/>
        <phase duration="4"  state="Gyyyyyrrr"/>
        <phase duration="41" state="GrrrrrGGG"/>
        <phase duration="4"  state="Grrrrryyy"/>
    </tlLogic>
    <tlLogic id="cluster_3200087225_9882176364" type="static" programID="0" offset="0">
        <phase duration="81" state="GG"/>
        <phase duration="4"  state="yy"/>
        <phase duration="5"  state="rr"/>
    </tlLogic>

    <connection from="-28705817#0" to="313965530#1" fromLane="0" toLane="0" tl="cluster_128500630_263260468_3200088777_3200088778_#5more" linkIndex="0"/>
    <connection from="-28705817#0" to="313965525" fromLane="0" toLane="0" tl="cluster_128500630_263260468_3200088777_3200088778_#5more" linkIndex="1"/>
    <connection from="-28705817#0" to="313965526" fromLane="0" toLane="1" tl="cluster_128500630_263260468_3200088777_3200088778_#5more" linkIndex="2"/>
    <connection from="-28705817#0" to="28705817#0" fromLane="0" toLane="0" tl="cluster_128500630_263260468_3200088777_3200088778_#5more" linkIndex="3"/>
    <connection from="1077840617#0" to="313965526" fromLane="0" toLane="0" tl="cluster_128500630_263260468_3200088777_3200088778_#5more" linkIndex="10"/>
    <connection from="1077840617#0" to="28705817#0" fromLane="0" toLane="0" tl="cluster_128500630_263260468_3200088777_3200088778_#5more" linkIndex="11"/>
    <connection from="1077840617#0" to="313965530#1" fromLane="1" toLane="2" tl="cluster_128500630_263260468_3200088777_3200088778_#5more" linkIndex="12"/>
    <connection from="1077840617#0" to="313965525" fromLane="1" toLane="0" tl="cluster_128500630_263260468_3200088777_3200088778_#5more" linkIndex="13"/>
    <connection from="1077840618#0" to="467782356" fromLane="0" toLane="0" tl="cluster_1304783852_1304784217_1304784254_1304784340_#2more" linkIndex="5"/>
    <connection from="1077840618#0" to="467782356" fromLane="1" toLane="1" tl="cluster_1304783852_1304784217_1304784254_1304784340_#2more" linkIndex="6"/>
    <connection from="1077840618#0" to="466495198" fromLane="1" toLane="1" tl="cluster_1304783852_1304784217_1304784254_1304784340_#2more" linkIndex="7"/>
    <connection from="1077840618#0" to="466495198" fromLane="1" toLane="2" tl="cluster_1304783852_1304784217_1304784254_1304784340_#2more" linkIndex="8"/>
    <connection from="1077840618#0" to="115505243#1" fromLane="1" toLane="0" tl="cluster_1304783852_1304784217_1304784254_1304784340_#2more" linkIndex="9"/>
    <connection from="1077840622" to="115505243#1" fromLane="0" toLane="0" tl="cluster_1304783852_1304784217_1304784254_1304784340_#2more" linkIndex="10"/>
    <connection from="1077840622" to="467782356" fromLane="0" toLane="0" tl="cluster_1304783852_1304784217_1304784254_1304784340_#2more" linkIndex="11"/>
    <connection from="1077840622" to="467782356" fromLane="1" toLane="1" tl="cluster_1304783852_1304784217_1304784254_1304784340_#2more" linkIndex="12"/>
    <connection from="1077840622" to="467782356" fromLane="2" toLane="2" tl="cluster_1304783852_1304784217_1304784254_1304784340_#2more" linkIndex="13"/>
    <connection from="1077840622" to="466495198" fromLane="2" toLane="2" tl="cluster_1304783852_1304784217_1304784254_1304784340_#2more" linkIndex="14"/>
    <connection from="13798307#0" to="13798307#1" fromLane="0" toLane="0" tl="1304784165" linkIndex="0"/>
    <connection from="13798307#0" to="13798307#1" fromLane="1" toLane="1" tl="1304784165" linkIndex="1"/>
    <connection from="13798307#1" to="320581597#1" fromLane="0" toLane="0" tl="cluster_1304784162_1304784228_3200087226_3200087231_#6more" linkIndex="0"/>
    <connection from="13798307#1" to="515410680#1" fromLane="0" toLane="0" tl="cluster_1304784162_1304784228_3200087226_3200087231_#6more" linkIndex="1"/>
    <connection from="13798307#1" to="515410680#1" fromLane="1" toLane="1" tl="cluster_1304784162_1304784228_3200087226_3200087231_#6more" linkIndex="2"/>
    <connection from="13798307#1" to="13798311#1" fromLane="1" toLane="1" tl="cluster_1304784162_1304784228_3200087226_3200087231_#6more" linkIndex="3"/>
    <connection from="13798311#1" to="320581596#1" fromLane="0" toLane="0" tl="1304784583" linkIndex="0"/>
    <connection from="13798311#1" to="320581596#1" fromLane="1" toLane="1" tl="1304784583" linkIndex="1"/>
    <connection from="320872715#0" to="515410680#1" fromLane="0" toLane="0" tl="cluster_1304784162_1304784228_3200087226_3200087231_#6more" linkIndex="6"/>
    <connection from="320872715#0" to="515410680#1" fromLane="1" toLane="1" tl="cluster_1304784162_1304784228_3200087226_3200087231_#6more" linkIndex="7"/>
    <connection from="320872715#0" to="13798311#1" fromLane="1" toLane="1" tl="cluster_1304784162_1304784228_3200087226_3200087231_#6more" linkIndex="8"/>
    <connection from="466495201#0" to="466495198" fromLane="0" toLane="0" tl="cluster_1304783852_1304784217_1304784254_1304784340_#2more" linkIndex="0"/>
    <connection from="466495201#0" to="466495198" fromLane="1" toLane="1" tl="cluster_1304783852_1304784217_1304784254_1304784340_#2more" linkIndex="1"/>
    <connection from="466495201#0" to="466495198" fromLane="2" toLane="2" tl="cluster_1304783852_1304784217_1304784254_1304784340_#2more" linkIndex="2"/>
    <connection from="466495201#0" to="115505243#1" fromLane="3" toLane="0" tl="cluster_1304783852_1304784217_1304784254_1304784340_#2more" linkIndex="3"/>
    <connection from="466495201#0" to="467782356" fromLane="3" toLane="2" tl="cluster_1304783852_1304784217_1304784254_1304784340_#2more" linkIndex="4"/>
    <connection from="466495265#0" to="313965525" fromLane="0" toLane="0" tl="cluster_128500630_263260468_3200088777_3200088778_#5more" linkIndex="14"/>
    <connection from="466495265#0" to="313965526" fromLane="1" toLane="0" tl="cluster_128500630_263260468_3200088777_3200088778_#5more" linkIndex="15"/>
    <connection from="466495265#0" to="313965526" fromLane="2" toLane="1" tl="cluster_128500630_263260468_3200088777_3200088778_#5more" linkIndex="16"/>
    <connection from="466495265#0" to="28705817#0" fromLane="3" toLane="0" tl="cluster_128500630_263260468_3200088777_3200088778_#5more" linkIndex="17"/>
    <connection from="466495265#0" to="313965530#1" fromLane="3" toLane="2" tl="cluster_128500630_263260468_3200088777_3200088778_#5more" linkIndex="18"/>
    <connection from="466495271#0" to="28705817#0" fromLane="0" toLane="0" tl="cluster_128500630_263260468_3200088777_3200088778_#5more" linkIndex="4"/>
    <connection from="466495271#0" to="313965530#1" fromLane="0" toLane="0" tl="cluster_128500630_263260468_3200088777_3200088778_#5more" linkIndex="5"/>
    <connection from="466495271#0" to="313965530#1" fromLane="1" toLane="1" tl="cluster_128500630_263260468_3200088777_3200088778_#5more" linkIndex="6"/>
    <connection from="466495271#0" to="313965530#1" fromLane="2" toLane="2" tl="cluster_128500630_263260468_3200088777_3200088778_#5more" linkIndex="7"/>
    <connection from="466495271#0" to="313965525" fromLane="3" toLane="0" tl="cluster_128500630_263260468_3200088777_3200088778_#5more" linkIndex="8"/>
    <connection from="466495271#0" to="313965526" fromLane="3" toLane="1" tl="cluster_128500630_263260468_3200088777_3200088778_#5more" linkIndex="9"/>
    <connection from="515410680#1" to="1077838551#1" fromLane="0" toLane="0" tl="9882176370" linkIndex="0"/>
    <connection from="515410680#1" to="1077838551#1" fromLane="1" toLane="1" tl="9882176370" linkIndex="1"/>
    <connection from="515410724#0" to="515410724#2" fromLane="0" toLane="0" tl="cluster_3200087225_9882176364" linkIndex="0"/>
    <connection from="515410724#0" to="515410724#2" fromLane="1" toLane="1" tl="cluster_3200087225_9882176364" linkIndex="1"/>
    <connection from="515410724#2" to="13798311#1" fromLane="0" toLane="0" tl="cluster_1304784162_1304784228_3200087226_3200087231_#6more" linkIndex="4"/>
    <connection from="515410724#2" to="13798311#1" fromLane="1" toLane="1" tl="cluster_1304784162_1304784228_3200087226_3200087231_#6more" linkIndex="5"/>
</tlLogics>
