<?xml version="1.0" encoding="UTF-8"?>

<!-- generated on 2026-03-15T21:15:41.850458+01:00 by Eclipse SUMO netconvert 1.26.0
<netconvertConfiguration xmlns:xsi="http://www.w3.org/2001/XMLSchema-instance" xsi:noNamespaceSchemaLocation="http://sumo.dlr.de/xsd/netconvertConfiguration.xsd">

    <input>
        <type-files value="/Users/damsleth/Code/SNV/network/osm/typemap.xml"/>
        <osm-files value="/Users/damsleth/Code/SNV/network/osm/fornebu.osm.xml"/>
    </input>

    <output>
        <output-file value="/Users/damsleth/Code/SNV/network/base/fornebu.net.xml"/>
        <plain-output-prefix value="/Users/damsleth/Code/SNV/network/base/fornebu"/>
        <output.street-names value="true"/>
        <output.original-names value="true"/>
    </output>

    <projection>
        <proj.utm value="true"/>
    </projection>

    <processing>
        <geometry.remove value="true"/>
        <roundabouts.guess value="true"/>
    </processing>

    <building_defaults>
        <default.junctions.radius value="12"/>
    </building_defaults>

    <ramp_guessing>
        <ramps.guess value="true"/>
    </ramp_guessing>

    <edge_removal>
        <keep-edges.by-vclass value="passenger"/>
        <remove-edges.by-type value="highway.footway,highway.cycleway,highway.path,highway.pedestrian,highway.steps,highway.service"/>
    </edge_removal>

    <junctions>
        <junctions.join value="true"/>
        <junctions.internal-link-detail value="5"/>
    </junctions>

</netconvertConfiguration>
-->

<edges version="1.20" xmlns:xsi="http://www.w3.org/2001/XMLSchema-instance" xsi:noNamespaceSchemaLocation="http://sumo.dlr.de/xsd/edges_file.xsd">
    <location netOffset="-587325.40,-6638827.91" convBoundary="0.00,0.00,4216.73,4162.49" origBoundary="10.537128,59.877260,10.637538,59.914818" projParameter="+proj=utm +zone=32 +ellps=WGS84 +datum=WGS84 +units=m +no_defs"/>

    <edge id="-1003915969" from="9013710088" to="354920644" name="Riiser-Larsens vei" priority="1" type="highway.residential" numLanes="1" speed="8.33" shape="2936.12,3341.91 2918.82,3329.79 2914.24,3327.08 2907.72,3323.23 2892.68,3316.69 2878.43,3312.94 2861.21,3310.56 2844.67,3311.51 2837.17,3313.29 2832.30,3314.45 2804.78,3322.82 2803.00,3323.85 2799.54,3325.86 2795.54,3329.19">
        <lane index="0">
            <param key="origId" value="1003915969 1003915968"/>
        </lane>
    </edge>
    <edge id="-1014336997" from="9202267849" to="671838815" name="Odd Nansens vei" priority="2" type="highway.tertiary" numLanes="1" speed="11.11" shape="3576.46,2497.66 3569.35,2500.55 3564.71,2502.44 3556.47,2504.70 3549.78,2506.34 3542.98,2507.67 3536.44,2508.03 3529.97,2507.72 3524.45,2507.03 3518.66,2505.41 3512.52,2503.10 3506.98,2499.76 3501.13,2496.08 3496.84,2492.82 3483.19,2482.16 3422.59,2433.66 3406.99,2422.11 3400.34,2417.21">
        <lane index="0">
            <param key="origId" value="1014336997 996605721 53158894"/>
        </lane>
    </edge>
    <edge id="-1034626203" from="9531010758" to="772926684" name="Holtet" priority="1" type="highway.residential" numLanes="1" speed="8.33">
        <lane index="0">
            <param key="origId" value="1034626203"/>
        </lane>
    </edge>
    <edge id="-1059460979" from="127910927" to="128655728" name="Professor Kohts vei" priority="3" type="highway.secondary" numLanes="1" speed="13.89" shape="3316.12,3625.29 3291.85,3612.74 3272.85,3602.55 3257.74,3593.62 3245.23,3585.56 3235.37,3578.53 3224.73,3570.24">
        <lane index="0">
            <param key="origId" value="1059460979 150887966"/>
        </lane>
        <param key="ref" value="1621"/>
    </edge>
    <edge id="-1059461015" from="6724708045" to="127882681" name="Gamle Drammensvei" priority="3" type="highway.secondary" numLanes="2" speed="11.11" shape="2601.51,3545.11 2591.10,3544.18 2580.75,3542.77">
        <lane index="0">
            <param key="origId" value="1059461015"/>
        </lane>
        <lane index="1">
            <param key="origId" value="1059461015"/>
        </lane>
        <param key="ref" value="1630"/>
    </edge>
    <edge id="-1059461016" from="127910927" to="127910919" name="Gamle Drammensvei" priority="3" type="highway.secondary" numLanes="1" speed="13.89" shape="3316.12,3625.29 3313.24,3628.16 3310.47,3628.99 3306.40,3629.35 3299.94,3628.89 3293.25,3626.81 3278.91,3619.67 3248.48,3603.08 3239.08,3598.28">
        <lane index="0">
            <param key="origId" value="1059461016"/>
        </lane>
        <param key="ref" value="1620"/>
    </edge>
    <edge id="-1059461026" from="8989446738" to="128655728" name="Professor Kohts vei" priority="3" type="highway.secondary" numLanes="1" speed="13.89" shape="3157.53,3508.92 3163.42,3513.94 3167.45,3517.37 3176.79,3526.79 3188.29,3537.32 3198.60,3546.76 3199.80,3547.85 3202.04,3549.92 3210.30,3557.57 3224.73,3570.24">
        <lane index="0">
            <param key="origId" value="1059461026 1059461027"/>
        </lane>
        <param key="ref" value="1621"/>
    </edge>
    <edge id="-1059461029#5" from="cluster_128655860_128655867" to="128661136" name="Markalleen" priority="3" type="highway.secondary" numLanes="2" speed="13.89" shape="2250.42,3137.60 2250.95,3148.38 2251.30,3151.34 2252.11,3158.16 2255.45,3165.82 2258.88,3170.24 2264.06,3176.07 2266.32,3177.69 2268.64,3179.35 2269.23,3179.78 2292.43,3192.92 2293.85,3193.72 2314.86,3205.55 2341.35,3220.87 2349.73,3225.77 2353.02,3227.69 2383.62,3245.53 2400.58,3255.42">
        <lane index="0">
            <param key="origId" value="1059461029"/>
        </lane>
        <lane index="1">
            <param key="origId" value="1059461029"/>
        </lane>
        <param key="origFrom" value="128655867"/>
        <param key="ref" value="1630"/>
    </edge>
    <edge id="-106270078#9" from="8989446993" to="cluster_128655860_128655867" name="Kveldsro terrasse" priority="1" type="highway.residential" numLanes="1" speed="8.33" shape="2067.60,2944.07 2075.37,2946.48 2084.50,2951.05 2089.89,2954.74 2097.24,2961.40 2102.59,2966.25 2118.30,2980.48 2135.85,2993.75 2156.37,3009.28 2163.68,3014.81 2175.14,3024.34 2207.00,3050.82 2208.96,3052.83 2244.36,3089.06 2254.88,3099.82 2261.72,3106.82 2262.69,3107.82 2264.87,3110.05 2271.32,3116.67 2274.05,3124.80 2276.05,3134.05">
        <lane index="0">
            <param key="origId" value="106270078"/>
        </lane>
        <param key="origTo" value="128655860"/>
    </edge>
    <edge id="-106377266#5" from="1224202610" to="1224202555" name="Boyes vei" priority="1" type="highway.residential" numLanes="1" speed="8.33" shape="2503.65,3244.97 2504.35,3240.76 2505.42,3234.23 2505.00,3213.80 2502.99,3204.33 2498.70,3194.18 2489.89,3183.33 2473.30,3163.23 2462.83,3149.40 2458.68,3143.91 2457.60,3139.38 2458.87,3132.22">
        <lane index="0">
            <param key="origId" value="106377266"/>
        </lane>
    </edge>
    <edge id="-106377266#8" from="1224202634" to="1224202610" name="Boyes vei" priority="1" type="highway.residential" numLanes="1" speed="8.33" shape="2454.46,3325.32 2457.87,3322.87 2462.03,3316.10 2468.10,3305.04 2484.70,3273.67 2503.65,3244.97">
        <lane index="0">
            <param key="origId" value="106377266"/>
        </lane>
    </edge>
    <edge id="-106377269#40" from="cluster_1224202673_264986267" to="1224202610" name="Nordliveien" priority="1" type="highway.residential" numLanes="1" speed="8.33" shape="3003.87,3610.32 2995.44,3604.21 2980.81,3596.49 2969.06,3590.28 2961.99,3586.54 2938.08,3573.90 2934.05,3571.78 2918.57,3564.08 2916.22,3562.91 2908.37,3558.83 2906.08,3557.64 2880.92,3544.54 2859.41,3533.34 2851.58,3529.26 2847.98,3527.31 2846.03,3526.26 2835.25,3520.45 2824.45,3514.02 2823.06,3512.98 2812.95,3505.48 2799.09,3491.78 2797.68,3490.39 2796.83,3489.56 2794.89,3487.57 2774.56,3466.86 2772.14,3464.76 2756.13,3450.87 2752.48,3447.85 2746.34,3442.76 2743.87,3440.72 2730.66,3429.35 2704.27,3406.62 2693.51,3397.35 2688.87,3393.36 2687.03,3391.98 2670.59,3378.67 2659.66,3369.23 2655.11,3365.36 2650.12,3361.12 2641.65,3354.25 2633.06,3347.30 2625.72,3341.35 2621.60,3338.01 2600.79,3319.68 2597.84,3317.08 2593.44,3313.20 2568.97,3291.65 2558.64,3282.55 2555.48,3280.10 2550.69,3276.40 2543.68,3270.97 2528.01,3260.45 2522.12,3256.50 2512.50,3250.03 2503.65,3244.97">
        <lane index="0">
            <param key="origId" value="106377269"/>
        </lane>
        <param key="origFrom" value="1224202673"/>
    </edge>
    <edge id="-106377272#9" from="1224202762" to="128655805" name="Ekeliveien" priority="1" type="highway.residential" numLanes="1" speed="8.33" shape="2956.41,3502.54 2933.72,3485.85 2930.33,3483.39 2925.34,3479.80 2913.22,3470.39 2906.35,3465.04 2900.55,3459.15 2896.37,3452.65 2891.24,3443.86 2886.59,3435.90 2883.19,3430.71 2880.22,3426.01 2877.28,3419.39 2876.26,3413.50 2876.58,3409.40 2877.63,3406.67 2880.04,3400.79 2884.11,3393.50 2887.08,3388.17">
        <lane index="0">
            <param key="origId" value="106377272"/>
        </lane>
    </edge>
    <edge id="-109922403" from="3759480557" to="1257134641" name="Lomviveien" priority="1" type="highway.residential" numLanes="1" speed="8.33" shape="2409.99,1688.17 2414.97,1700.70 2431.67,1714.88 2480.94,1756.77 2502.42,1775.05 2563.37,1826.88 2617.64,1873.05 2669.39,1917.06 2690.88,1935.34 2700.03,1942.48">
        <lane index="0">
            <param key="origId" value="109922403"/>
        </lane>
    </edge>
    <edge id="-110152638#0" from="8991845505" to="540897573" name="Høvikveien" priority="3" type="highway.secondary" numLanes="2" speed="13.89" shape="867.14,3788.64 874.17,3797.89 879.77,3804.92 902.62,3833.71 921.74,3858.46 929.92,3868.70 953.72,3898.78">
        <lane index="0">
            <param key="origId" value="110152638"/>
        </lane>
        <lane index="1">
            <param key="origId" value="110152638"/>
        </lane>
        <param key="ref" value="1628"/>
    </edge>
    <edge id="-110152638#2" from="8991845512" to="8991845505" name="Høvikveien" priority="3" type="highway.secondary" numLanes="2" speed="13.89" shape="745.46,3480.64 750.40,3496.17 754.38,3508.99 757.61,3527.09 759.22,3540.96 760.00,3552.03 759.91,3565.18 759.28,3584.06 757.74,3606.96 757.40,3624.05 757.34,3631.03 758.70,3638.33 760.71,3644.84 764.21,3652.94 772.17,3667.17 779.60,3677.75 816.08,3723.39 835.67,3747.90 867.14,3788.64">
        <lane index="0">
            <param key="origId" value="110152638"/>
        </lane>
        <lane index="1">
            <param key="origId" value="110152638"/>
        </lane>
        <param key="ref" value="1628"/>
    </edge>
    <edge id="-110152638#4" from="2734417334" to="8991845512" name="Høvikveien" priority="3" type="highway.secondary" numLanes="2" speed="13.89" shape="714.61,3393.64 726.79,3428.38 736.68,3457.47 745.46,3480.64">
        <lane index="0">
            <param key="origId" value="110152638"/>
        </lane>
        <lane index="1">
            <param key="origId" value="110152638"/>
        </lane>
        <param key="ref" value="1628"/>
    </edge>
    <edge id="-1102867612" from="315548602" to="10092062611" name="Michelets vei" priority="2" type="highway.tertiary" numLanes="1" speed="8.33" shape="3403.89,3287.67 3381.14,3293.84 3370.43,3296.08 3361.80,3297.31 3352.37,3298.37 3342.14,3298.64 3329.30,3298.53 3319.18,3297.52 3309.27,3295.92 3301.97,3294.43 3298.58,3293.51 3291.62,3291.65 3282.79,3288.81">
        <lane index="0">
            <param key="origId" value="1102867612"/>
        </lane>
    </edge>
    <edge id="-1102867613#6" from="772941212" to="10092062591" name="Michelets vei" priority="1" type="highway.residential" numLanes="1" speed="8.33" shape="2857.92,3101.25 2874.60,3115.82 2890.43,3128.66 2902.01,3136.34 2927.92,3151.13 2939.45,3157.67 2964.19,3171.71 2970.83,3175.33 2977.50,3179.98 2988.59,3188.88 3002.88,3200.33 3016.80,3211.49 3018.64,3212.97 3026.72,3219.82 3038.02,3229.48 3051.29,3240.82 3056.85,3245.47 3062.05,3249.30 3062.95,3249.83 3066.58,3251.97 3070.64,3253.72 3076.02,3255.43 3080.17,3256.07 3086.03,3256.28 3088.36,3256.31 3090.29,3256.33 3095.62,3255.69">
        <lane index="0">
            <param key="origId" value="1102867613 1102867613 1102867613 1102867613 1102867613 31665217"/>
        </lane>
    </edge>
    <edge id="-113813264" from="1290310754" to="810477843" name="Bjerkealleen" priority="1" type="highway.residential" numLanes="1" speed="8.33" shape="1568.90,2322.85 1543.40,2299.58 1510.16,2266.37 1473.16,2233.43 1463.99,2227.75">
        <lane index="0">
            <param key="origId" value="113813264"/>
        </lane>
    </edge>
    <edge id="-113813266#1" from="810477826" to="810477843" name="Bjerkealleen" priority="1" type="highway.residential" numLanes="1" speed="8.33" shape="1421.92,2234.74 1432.49,2232.12 1463.99,2227.75">
        <lane index="0">
            <param key="origId" value="113813266"/>
        </lane>
    </edge>
    <edge id="-113813267" from="8957957031" to="1637523982" name="Drammensveien" priority="1" type="highway.residential" numLanes="1" speed="13.89" shape="2054.50,2860.26 2049.94,2856.90 2044.40,2853.94 2039.62,2851.73 2036.16,2850.22 2030.77,2848.41 2026.43,2847.78 2022.24,2848.13">
        <lane index="0">
            <param key="origId" value="113813267"/>
        </lane>
        <param key="ref" value="E 18"/>
    </edge>
    <edge id="-113813268#0" from="10411552" to="6188214295" name="Høviksvingen" priority="3" type="highway.secondary" numLanes="2" speed="13.89" shape="1150.44,2438.96 1147.05,2432.43 1142.69,2426.82 1137.94,2421.51 1128.41,2413.73 1119.51,2407.54 1101.17,2396.01">
        <lane index="0">
            <param key="origId" value="113813268"/>
        </lane>
        <lane index="1">
            <param key="origId" value="113813268"/>
        </lane>
        <param key="ref" value="1628"/>
    </edge>
    <edge id="-113813268#1" from="3890967742" to="10411552" name="Høviksvingen" priority="3" type="highway.secondary" numLanes="2" speed="13.89" shape="1153.36,2489.40 1153.73,2487.74 1155.34,2477.48 1155.99,2467.53 1155.51,2456.99 1153.60,2448.06 1150.44,2438.96">
        <lane index="0">
            <param key="origId" value="113813268"/>
        </lane>
        <lane index="1">
            <param key="origId" value="113813268"/>
        </lane>
        <param key="ref" value="1628"/>
    </edge>
    <edge id="-113813274#4" from="1321464996" to="10411575" name="Sarbuvollveien" priority="1" type="highway.residential" numLanes="1" speed="8.33" shape="1496.15,2045.91 1444.83,2086.97 1434.69,2095.06 1381.90,2136.09 1368.79,2147.58 1364.80,2153.98 1363.23,2160.07">
        <lane index="0">
            <param key="origId" value="113813274"/>
        </lane>
    </edge>
    <edge id="-113815188#4" from="2940743980" to="315553766" name="Bombakken" priority="1" type="highway.residential" numLanes="1" speed="8.33" shape="4135.48,3383.38 4117.59,3369.74 4109.40,3365.23 4105.24,3362.93 4096.74,3359.76 4088.47,3358.64 4083.16,3358.74 4077.01,3358.87 4052.60,3359.37">
        <lane index="0">
            <param key="origId" value="113815188"/>
        </lane>
    </edge>
    <edge id="-113815192" from="1290332408" to="315551150" name="Fornebuveien" priority="1" type="highway.unclassified" numLanes="1" speed="8.33" shape="3962.85,3822.71 3958.86,3823.06 3954.69,3821.75 3950.35,3819.16 3939.45,3809.99 3910.77,3787.02 3906.66,3783.78 3897.27,3776.39 3863.93,3748.87 3808.67,3703.24 3802.42,3697.17 3798.85,3693.70 3790.02,3684.19 3781.46,3672.97 3775.03,3662.19 3771.32,3653.78 3769.25,3644.47 3767.80,3635.06 3767.49,3623.86 3768.93,3601.29 3774.06,3576.78">
        <lane index="0">
            <param key="origId" value="113815192"/>
        </lane>
    </edge>
    <edge id="-113815197#1" from="1290332365" to="315557620" name="Lilløyveien" priority="1" type="highway.residential" numLanes="1" speed="8.33" shape="3869.13,3417.20 3905.31,3439.99 3938.90,3471.57 3953.49,3480.80 3974.91,3488.35">
        <lane index="0">
            <param key="origId" value="113815197"/>
        </lane>
    </edge>
    <edge id="-113815197#2" from="315551144" to="1290332365" name="Lilløyveien" priority="1" type="highway.residential" numLanes="1" speed="8.33" shape="3807.62,3386.03 3813.83,3387.31 3823.31,3388.82 3832.39,3392.04 3846.59,3400.34 3869.13,3417.20">
        <lane index="0">
            <param key="origId" value="113815197"/>
        </lane>
    </edge>
    <edge id="-113815198#7" from="315553766" to="315557620" name="Fridtjof Nansens vei" priority="1" type="highway.residential" numLanes="1" speed="8.33" shape="4052.60,3359.37 4051.62,3385.68 4056.66,3412.68 4057.76,3424.68 4058.33,3430.90 4058.50,3432.74 4054.22,3452.79 4046.31,3469.02 4043.95,3473.85 4042.57,3475.10 4037.50,3479.70 4036.85,3479.82 4029.35,3481.10 4024.42,3480.59 4013.84,3479.48 4001.74,3478.22 3989.13,3479.11 3974.91,3488.35">
        <lane index="0">
            <param key="origId" value="113815198"/>
        </lane>
    </edge>
    <edge id="-113815198#9" from="315553553" to="315553766" name="Fridtjof Nansens vei" priority="1" type="highway.residential" numLanes="1" speed="8.33" shape="4054.03,3267.89 4060.15,3283.93 4059.01,3295.33 4053.61,3349.28 4052.60,3359.37">
        <lane index="0">
            <param key="origId" value="113815198"/>
        </lane>
    </edge>
    <edge id="-113815199#1" from="10411989" to="10412016" name="Gamle Ringeriksvei" priority="3" type="highway.secondary" numLanes="1" speed="13.89" shape="2246.78,3612.61 2248.78,3599.82 2249.29,3590.42 2249.49,3579.34 2249.49,3570.30 2249.30,3560.81 2249.22,3556.57 2248.25,3538.59 2245.68,3504.43 2242.89,3475.71 2242.22,3471.93 2241.83,3463.88">
        <lane index="0">
            <param key="origId" value="113815199"/>
        </lane>
        <param key="ref" value="1630"/>
    </edge>
    <edge id="-113815204" from="263260891" to="772941212" name="Ekern" priority="1" type="highway.residential" numLanes="1" speed="8.33" shape="2983.22,3070.98 2977.39,3072.20 2971.08,3071.58 2952.04,3066.68 2935.98,3063.67 2921.14,3063.01 2907.37,3064.54 2895.81,3067.63 2881.84,3074.18 2874.51,3079.17 2869.13,3084.67 2862.62,3093.20 2857.92,3101.25">
        <lane index="0">
            <param key="origId" value="113815204"/>
        </lane>
    </edge>
    <edge id="-113815207#0" from="8982210369" to="8982209617" name="Michelets vei" priority="1" type="highway.residential" numLanes="1" speed="8.33" shape="2437.69,2896.70 2450.66,2896.58 2453.67,2896.55 2474.97,2897.96 2491.63,2901.16 2518.79,2908.16 2545.69,2917.38 2560.51,2922.90 2599.26,2937.12 2618.33,2945.03 2659.50,2960.68 2682.33,2971.59 2702.70,2981.64 2719.06,2990.88">
        <lane index="0">
            <param key="origId" value="113815207 818010615 818010615"/>
        </lane>
    </edge>
    <edge id="-113815207#1" from="cluster_1445856473_528744114_772926681" to="8982210369" name="Michelets vei" priority="1" type="highway.residential" numLanes="1" speed="8.33" shape="2359.86,2894.23 2406.06,2896.99 2432.23,2896.75 2437.69,2896.70">
        <lane index="0">
            <param key="origId" value="113815207"/>
        </lane>
        <param key="origFrom" value="528744114"/>
    </edge>
    <edge id="-113815207#3" from="772926670" to="cluster_1445856473_528744114_772926681" name="Michelets vei" priority="1" type="highway.residential" numLanes="1" speed="8.33" shape="2273.07,2877.45 2307.50,2885.22 2337.24,2889.64">
        <lane index="0">
            <param key="origId" value="113815207"/>
        </lane>
        <param key="origTo" value="1445856473"/>
    </edge>
    <edge id="-113815207#4" from="cluster_528744094_8982209644_8982209645" to="772926670" name="Michelets vei" priority="1" type="highway.residential" numLanes="1" speed="8.33" shape="2176.89,2825.57 2193.00,2840.34 2205.37,2849.84 2216.47,2856.80 2230.12,2863.94 2250.48,2871.70 2259.58,2874.22 2273.07,2877.45">
        <lane index="0">
            <param key="origId" value="113815207"/>
        </lane>
        <param key="origFrom" value="528744094"/>
    </edge>
    <edge id="-113815207#7" from="1469176791" to="cluster_528744094_8982209644_8982209645" name="Michelets vei" priority="1" type="highway.residential" numLanes="1" speed="8.33" shape="2128.72,2776.62 2134.91,2781.99 2162.50,2810.68">
        <lane index="0">
            <param key="origId" value="113815207"/>
        </lane>
        <param key="origTo" value="8982209645"/>
    </edge>
    <edge id="-113815207#8" from="528744057" to="1469176791" name="Michelets vei" priority="1" type="highway.residential" numLanes="1" speed="8.33" shape="2082.52,2750.25 2111.22,2763.21 2128.72,2776.62">
        <lane index="0">
            <param key="origId" value="113815207"/>
        </lane>
    </edge>
    <edge id="-113815207#9" from="528744045" to="528744057" name="Michelets vei" priority="1" type="highway.residential" numLanes="1" speed="8.33" shape="2047.44,2747.54 2054.19,2746.19 2067.02,2747.32 2082.52,2750.25">
        <lane index="0">
            <param key="origId" value="113815207"/>
        </lane>
    </edge>
    <edge id="-115505244#0" from="4041045897" to="1304783967" name="Rolfsbuktveien" priority="2" type="highway.tertiary" numLanes="1" speed="13.89" shape="3790.49,1846.68 3823.60,1805.48 3826.94,1801.33">
        <lane index="0">
            <param key="origId" value="115505244"/>
        </lane>
    </edge>
    <edge id="-115505244#1" from="1304784522" to="4041045897" name="Rolfsbuktveien" priority="2" type="highway.tertiary" numLanes="1" speed="13.89" shape="3679.83,1976.80 3685.87,1971.73 3693.55,1964.32 3701.47,1954.96 3741.56,1905.51 3745.47,1901.02 3787.30,1850.52 3790.49,1846.68">
        <lane index="0">
            <param key="origId" value="115505244"/>
        </lane>
    </edge>
    <edge id="-1159710207" from="2821741118" to="431369324" name="Framnesveien" priority="1" type="highway.residential" numLanes="1" speed="8.33" shape="3628.03,395.28 3620.70,396.68 3612.33,396.22 3605.58,392.77 3557.51,346.80 3549.53,340.74">
        <lane index="0">
            <param key="origId" value="1159710207"/>
        </lane>
    </edge>
    <edge id="-1162849796" from="10814900701" to="431369324" name="Grøndalen" priority="1" type="highway.residential" numLanes="1" speed="8.33" shape="3565.35,310.80 3562.85,314.85 3559.43,319.44 3555.34,326.36 3549.53,340.74">
        <lane index="0">
            <param key="origId" value="1162849796"/>
        </lane>
    </edge>
    <edge id="-1170402199#0" from="772926697" to="1224202555" name="Professor Kohts vei" priority="3" type="highway.secondary" numLanes="2" speed="13.89" shape="2307.48,3126.67 2318.69,3124.18 2346.81,3118.35 2364.63,3115.05 2379.24,3114.19 2392.31,3114.52 2411.24,3116.47 2425.50,3119.66 2428.63,3120.66 2436.99,3123.33 2458.87,3132.22">
        <lane index="0">
            <param key="origId" value="1170402199 169496171"/>
        </lane>
        <lane index="1">
            <param key="origId" value="1170402199 169496171"/>
        </lane>
        <param key="ref" value="1621"/>
    </edge>
    <edge id="-1170402199#1" from="cluster_128655860_128655867" to="772926697" name="Professor Kohts vei" priority="3" type="highway.secondary" numLanes="2" speed="13.89" shape="2276.05,3134.05 2307.48,3126.67">
        <lane index="0">
            <param key="origId" value="1170402199"/>
        </lane>
        <lane index="1">
            <param key="origId" value="1170402199"/>
        </lane>
        <param key="origFrom" value="128655860"/>
        <param key="ref" value="1621"/>
    </edge>
    <edge id="-117206743#0" from="1320209771" to="1320209805" name="Rektor Hertzbergs vei" priority="1" type="highway.residential" numLanes="1" speed="8.33" shape="871.21,3221.16 869.72,3198.32 869.42,3185.74 868.26,3171.17 869.02,3158.30 871.74,3138.73 875.43,3128.64 882.85,3119.82 893.74,3110.42">
        <lane index="0">
            <param key="origId" value="117206743"/>
        </lane>
    </edge>
    <edge id="-117206743#1" from="cluster_1637470857_263258607" to="1320209771" name="Rektor Hertzbergs vei" priority="1" type="highway.residential" numLanes="1" speed="8.33" shape="867.84,3291.12 873.52,3284.72 875.11,3280.86 871.21,3221.16">
        <lane index="0">
            <param key="origId" value="117206743"/>
        </lane>
        <param key="origFrom" value="263258607"/>
    </edge>
    <edge id="-117206746" from="1320209667" to="1320209771" name="Rektor Hertzbergs vei" priority="1" type="highway.residential" numLanes="1" speed="8.33" shape="745.16,3103.70 749.62,3104.98 758.23,3108.85 765.94,3113.00 776.85,3121.34 784.16,3129.31 794.76,3144.40 804.33,3158.41 835.03,3205.29 841.73,3214.29 847.02,3218.91 851.63,3220.66 859.86,3221.46 871.21,3221.16">
        <lane index="0">
            <param key="origId" value="117206746"/>
        </lane>
    </edge>
    <edge id="-117206747" from="1320209820" to="1320209789" name="Johs Faales vei" priority="1" type="highway.residential" numLanes="1" speed="8.33" shape="740.68,3304.33 732.28,3300.79 731.64,3293.02 741.47,3270.79 750.56,3260.96 752.91,3256.83 756.24,3249.56 761.15,3244.88 766.45,3242.77 769.22,3239.98 775.82,3224.78">
        <lane index="0">
            <param key="origId" value="117206747"/>
        </lane>
    </edge>
    <edge id="-117213874" from="cluster_835313439_835313442" to="1320259306" name="Krokvolden" priority="1" type="highway.residential" numLanes="1" speed="8.33" shape="1617.67,3449.91 1582.42,3419.73">
        <lane index="0">
            <param key="origId" value="117213874"/>
        </lane>
        <param key="origFrom" value="835313442"/>
    </edge>
    <edge id="-117213884" from="1320259300" to="1320259375" name="Skogveien" priority="1" type="highway.residential" numLanes="1" speed="8.33" shape="1505.90,3387.64 1495.53,3375.70 1442.05,3326.92">
        <lane index="0">
            <param key="origId" value="117213884"/>
        </lane>
    </edge>
    <edge id="-117335733#1" from="1321464864" to="528744045" name="Holtekilveien" priority="1" type="highway.residential" numLanes="1" speed="8.33" shape="2086.90,2637.36 2084.17,2651.75 2072.51,2693.64 2066.97,2704.15 2061.37,2710.59 2054.14,2722.65 2050.97,2731.86 2047.44,2747.54">
        <lane index="0">
            <param key="origId" value="117335733"/>
        </lane>
    </edge>
    <edge id="-1180739476" from="3238702649" to="1637523853" name="Drammensveien" priority="3" type="highway.secondary" numLanes="2" speed="13.89" shape="1302.39,2612.90 1310.54,2622.16 1321.25,2634.03">
        <lane index="0">
            <param key="origId" value="1180739476"/>
        </lane>
        <lane index="1">
            <param key="origId" value="1180739476"/>
        </lane>
        <param key="ref" value="1621"/>
    </edge>
    <edge id="-1248839127#0" from="1557713032" to="128596186" name="Snarøyveien" priority="2" type="highway.tertiary" numLanes="1" speed="11.11">
        <lane index="0">
            <param key="origId" value="1248839127"/>
        </lane>
    </edge>
    <edge id="-1248839127#1" from="11608025475" to="1557713032" name="Snarøyveien" priority="2" type="highway.tertiary" numLanes="1" speed="11.11">
        <lane index="0">
            <param key="origId" value="1248839127"/>
        </lane>
    </edge>
    <edge id="-1260596632" from="772926697" to="9834615260" name="Kveldsrosvingen" priority="1" type="highway.residential" numLanes="1" speed="8.33">
        <lane index="0">
            <param key="origId" value="1260596632"/>
        </lane>
    </edge>
    <edge id="-1273415469" from="128655728" to="1637524244" name="Philip Pedersens vei" priority="1" type="highway.unclassified" numLanes="1" speed="13.89" shape="3224.73,3570.24 3227.74,3565.17 3229.51,3562.09 3232.44,3556.97 3234.06,3553.78 3239.22,3543.59 3241.12,3539.86 3241.35,3539.39 3251.25,3519.84 3265.63,3492.57 3270.70,3483.89 3273.83,3479.15 3278.41,3473.16 3285.90,3468.59 3291.51,3467.96 3297.09,3469.56 3307.59,3475.06 3337.80,3490.94 3375.49,3510.42 3386.30,3516.30 3507.12,3583.17 3534.23,3600.91 3556.50,3615.47">
        <lane index="0">
            <param key="origId" value="1273415469 1273415468 150887965"/>
        </lane>
    </edge>
    <edge id="-1278491335" from="127910916" to="8989445995" name="Fagerhøyveien" priority="1" type="highway.residential" numLanes="1" speed="8.33" shape="3182.11,3588.92 3182.00,3593.87 3181.88,3599.17 3179.66,3607.52 3177.82,3610.59">
        <lane index="0">
            <param key="origId" value="1278491335"/>
        </lane>
    </edge>
    <edge id="-128877220" from="3890967816" to="10411547" name="Høvik bru" priority="3" type="highway.secondary" numLanes="2" speed="13.89">
        <lane index="0">
            <param key="origId" value="128877220"/>
        </lane>
        <lane index="1">
            <param key="origId" value="128877220"/>
        </lane>
        <param key="ref" value="1628"/>
    </edge>
    <edge id="-128877221#2" from="cluster_1422974364_2667857856" to="263256462" name="Høvikveien" priority="3" type="highway.secondary" numLanes="2" speed="13.89" shape="786.83,2599.68 785.44,2624.78 783.16,2661.59 783.15,2669.75 783.05,2677.96 783.70,2692.31 785.25,2708.13 785.70,2714.47 785.53,2721.63 784.87,2730.46">
        <lane index="0">
            <param key="origId" value="128877221"/>
        </lane>
        <lane index="1">
            <param key="origId" value="128877221"/>
        </lane>
        <param key="origFrom" value="1422974364"/>
        <param key="ref" value="1628"/>
    </edge>
    <edge id="-128877221#4" from="8991845553" to="cluster_1422974364_2667857856" name="Høvikveien" priority="3" type="highway.secondary" numLanes="2" speed="13.89" shape="817.72,2529.83 811.87,2532.68 806.95,2536.86 801.05,2543.92 793.72,2557.32 791.14,2564.38">
        <lane index="0">
            <param key="origId" value="128877221"/>
        </lane>
        <lane index="1">
            <param key="origId" value="128877221"/>
        </lane>