<?xml version="1.0" encoding="UTF-8"?>

<!-- generated on 2026-06-11T11:29:45.207116+01:00 by Eclipse SUMO netconvert 1.26.0
<netconvertConfiguration xmlns:xsi="http://www.w3.org/2001/XMLSchema-instance" xsi:noNamespaceSchemaLocation="http://sumo.dlr.de/xsd/netconvertConfiguration.xsd">

    <input>
        <type-files value="~/code/snv-trafikk/network/osm/typemap.xml"/>
        <osm-files value="~/code/snv-trafikk/network/osm/fornebu.osm.xml"/>
    </input>

    <output>
        <output-file value="~/code/snv-trafikk/network/base/fornebu.net.xml"/>
        <plain-output-prefix value="~/code/snv-trafikk/network/base/fornebu"/>
        <output.street-names value="true"/>
        <output.original-names value="true"/>
    </output>

    <projection>
        <proj.utm value="true"/>
    </projection>

    <processing>
        <geometry.remove value="true"/>
        <roundabouts.guess value="true"/>
    </processing>

    <building_defaults>
        <default.junctions.radius value="12"/>
    </building_defaults>

    <ramp_guessing>
        <ramps.guess value="true"/>
    </ramp_guessing>

    <edge_removal>
        <keep-edges.by-vclass value="passenger"/>
        <remove-edges.by-type value="highway.footway,highway.cycleway,highway.path,highway.pedestrian,highway.steps,highway.service"/>
    </edge_removal>

    <junctions>
        <junctions.join value="true"/>
        <junctions.internal-link-detail value="5"/>
    </junctions>

</netconvertConfiguration>
-->

<types version="1.20" xmlns:xsi="http://www.w3.org/2001/XMLSchema-instance" xsi:noNamespaceSchemaLocation="http://sumo.dlr.de/xsd/types_file.xsd">
    <type id="highway.living_street" priority="1" numLanes="1" speed="5.56" oneway="0"/>
    <type id="highway.primary" priority="4" numLanes="2" speed="16.67" oneway="0"/>
    <type id="highway.residential" priority="1" numLanes="1" speed="8.33" oneway="0"/>
    <type id="highway.secondary" priority="3" numLanes="2" speed="13.89" oneway="0"/>
    <type id="highway.tertiary" priority="2" numLanes="1" speed="11.11" oneway="0"/>
    <type id="highway.trunk" priority="5" numLanes="2" speed="22.22" oneway="0"/>
    <type id="highway.trunk_link" priority="4" numLanes="1" speed="16.67" oneway="0"/>
    <type id="highway.unclassified" priority="1" numLanes="1" speed="8.33" oneway="0"/>

</types>
