<?xml version="1.0" encoding="UTF-8"?>

<!-- generated on 2026-03-15T19:52:35.710453+01:00 by Eclipse SUMO netconvert 1.26.0
<netconvertConfiguration xmlns:xsi="http://www.w3.org/2001/XMLSchema-instance" xsi:noNamespaceSchemaLocation="http://sumo.dlr.de/xsd/netconvertConfiguration.xsd">

    <input>
        <type-files value="/Users/damsleth/Code/SNV/network/osm/typemap.xml"/>
        <osm-files value="/Users/damsleth/Code/SNV/network/osm/fornebu.osm.xml"/>
    </input>

    <output>
        <output-file value="/Users/damsleth/Code/SNV/network/base/fornebu.net.xml"/>
        <plain-output-prefix value="/Users/damsleth/Code/SNV/network/base/fornebu"/>
        <output.street-names value="true"/>
        <output.original-names value="true"/>
    </output>

    <projection>
        <proj.utm value="true"/>
    </projection>

    <processing>
        <geometry.remove value="true"/>
        <roundabouts.guess value="true"/>
    </processing>

    <building_defaults>
        <default.junctions.radius value="12"/>
    </building_defaults>

    <ramp_guessing>
        <ramps.guess value="true"/>
    </ramp_guessing>

    <edge_removal>
        <keep-edges.by-vclass value="passenger"/>
        <remove-edges.by-type value="highway.footway,highway.cycleway,highway.path,highway.pedestrian,highway.steps,highway.service"/>
    </edge_removal>

    <junctions>
        <junctions.join value="true"/>
        <junctions.internal-link-detail value="5"/>
    </junctions>

</netconvertConfiguration>
-->

<nodes version="1.20" xmlns:xsi="http://www.w3.org/2001/XMLSchema-instance" xsi:noNamespaceSchemaLocation="http://sumo.dlr.de/xsd/nodes_file.xsd">
    <location netOffset="-587325.40,-6638827.91" convBoundary="0.00,0.00,4216.73,4162.49" origBoundary="10.537128,59.877260,10.637538,59.914818" projParameter="+proj=utm +zone=32 +ellps=WGS84 +datum=WGS84 +units=m +no_defs"/>

    <node id="10092062591" x="3095.62" y="3255.69" type="right_before_left" radius="12.00"/>
    <node id="10092062596" x="3143.44" y="3196.37" type="right_before_left" radius="12.00"/>
    <node id="10092062600" x="3187.48" y="3229.18" type="priority"/>
    <node id="10092062611" x="3282.79" y="3288.81" type="priority" radius="11.26"/>
    <node id="10109280079" x="3629.90" y="2315.85" type="priority" radius="6.43"/>
    <node id="10109320985" x="2687.45" y="3175.22" type="priority" radius="2.61"/>
    <node id="1019286536" x="3697.44" y="2325.04" type="right_before_left" radius="3.45"/>
    <node id="10411547" x="1104.34" y="2619.57" type="priority" radius="1.50"/>
    <node id="10411551" x="1150.42" y="2504.28" type="priority" radius="1.50"/>
    <node id="10411552" x="1150.44" y="2438.96" type="priority" radius="11.20"/>
    <node id="10411560" x="1167.64" y="2216.53" type="right_before_left" radius="12.00"/>
    <node id="10411563" x="1146.04" y="2166.89" type="right_before_left" radius="11.73"/>
    <node id="10411574" x="1279.24" y="2126.71" type="right_before_left" radius="12.00"/>
    <node id="10411575" x="1363.23" y="2160.07" type="right_before_left" radius="9.90"/>
    <node id="10411627" x="1095.08" y="2630.25" type="priority" radius="1.50"/>
    <node id="10411693" x="741.18" y="2759.22" type="dead_end"/>
    <node id="10411989" x="2246.78" y="3612.61" type="priority" radius="12.00"/>
    <node id="10412016" x="2241.83" y="3463.88" type="priority" radius="10.89"/>
    <node id="10412067" x="2347.98" y="3488.10" type="priority" radius="12.00"/>
    <node id="10536945833" x="3099.47" y="3347.11" type="priority" radius="1.50"/>
    <node id="10586604074" x="1913.71" y="2847.95" type="priority" radius="12.00"/>
    <node id="1067688346" x="2128.27" y="543.95" type="priority"/>
    <node id="1067688396" x="2799.65" y="600.36" type="priority"/>
    <node id="1067688478" x="2155.21" y="616.85" type="priority"/>
    <node id="1067688501" x="2186.67" y="539.49" type="priority"/>
    <node id="1070626534" x="788.45" y="2754.82" type="priority" radius="4.30"/>
    <node id="1070626551" x="778.37" y="2769.21" type="priority" radius="2.16"/>
    <node id="1070626556" x="2545.14" y="3537.94" type="priority" radius="2.77"/>
    <node id="1070626563" x="777.25" y="2756.49" type="priority" radius="1.90"/>
    <node id="1070626592" x="2547.60" y="3530.63" type="priority" radius="3.39"/>
    <node id="1070626595" x="1314.97" y="2580.18" type="priority" radius="1.50"/>
    <node id="1070724458" x="830.08" y="2398.99" type="priority" radius="12.00"/>
    <node id="1070724482" x="918.09" y="2449.86" type="priority" radius="1.50"/>
    <node id="10814900701" x="3565.35" y="310.80" type="priority"/>
    <node id="10966079493" x="3651.27" y="3587.11" type="priority" radius="1.50"/>
    <node id="1125093218" x="3747.64" y="3487.59" type="priority" radius="1.50"/>
    <node id="1125149284" x="3356.99" y="2884.49" type="priority" radius="4.17"/>
    <node id="1125149342" x="3732.69" y="3528.00" type="priority" radius="1.50"/>
    <node id="1125149392" x="3724.30" y="3524.80" type="priority" radius="1.50"/>
    <node id="11608025475" x="3328.20" y="1602.43" type="priority"/>
    <node id="11945147116" x="3655.84" y="3715.29" type="dead_end"/>
    <node id="12078156959" x="3373.11" y="855.32" type="priority"/>
    <node id="1224202555" x="2458.87" y="3132.22" type="priority" radius="12.00"/>
    <node id="1224202610" x="2503.65" y="3244.97" type="right_before_left" radius="11.26"/>
    <node id="1224202634" x="2454.46" y="3325.32" type="priority" radius="12.00"/>
    <node id="1224202762" x="2956.41" y="3502.54" type="priority"/>
    <node id="12550905806" x="972.29" y="3391.61" type="right_before_left" radius="8.27"/>
    <node id="1255835717" x="3136.33" y="1229.92" type="priority"/>
    <node id="1257134641" x="2700.03" y="1942.48" type="priority" radius="12.00"/>
    <node id="1257134743" x="3375.75" y="2035.04" type="priority"/>
    <node id="127882625" x="1994.96" y="3812.71" type="priority"/>
    <node id="127882681" x="2580.75" y="3542.77" type="priority" radius="1.61"/>
    <node id="127882692" x="2456.01" y="3408.57" type="right_before_left" radius="12.00"/>
    <node id="127882696" x="2686.77" y="3508.28" type="priority" radius="1.50"/>
    <node id="127882700" x="2697.22" y="3498.76" type="priority" radius="12.00"/>
    <node id="127910916" x="3182.11" y="3588.92" type="priority" radius="12.00"/>
    <node id="127910919" x="3239.08" y="3598.28" type="priority" radius="1.50"/>
    <node id="127910927" x="3316.12" y="3625.29" type="priority" radius="12.00"/>
    <node id="128500621" x="3778.94" y="3381.67" type="priority" radius="1.50"/>
    <node id="128500833" x="3794.17" y="3383.65" type="priority" radius="1.50"/>
    <node id="128500867" x="3728.50" y="3526.63" type="priority" radius="1.50"/>
    <node id="128500898" x="3732.74" y="3481.38" type="priority" radius="1.50"/>
    <node id="128500906" x="3711.09" y="3519.88" type="priority" radius="1.50"/>
    <node id="128500924" x="3682.29" y="3584.04" type="priority" radius="1.50"/>
    <node id="128500929" x="3673.43" y="3621.46" type="priority" radius="1.50"/>
    <node id="128500934" x="3672.56" y="3706.01" type="dead_end"/>
    <node id="128500957" x="3671.65" y="3669.76" type="priority" radius="1.50"/>
    <node id="128540476" x="3733.47" y="3642.17" type="priority" radius="1.50"/>
    <node id="128540495" x="3806.19" y="3726.97" type="dead_end" radius="1.50"/>
    <node id="128540528" x="3749.60" y="3638.97" type="priority" radius="1.50"/>
    <node id="128540554" x="3943.06" y="3827.93" type="dead_end"/>
    <node id="128558992" x="3626.73" y="2015.48" type="priority" radius="3.82"/>
    <node id="128559008" x="3629.07" y="1985.00" type="priority" radius="3.15"/>
    <node id="128559020" x="3644.89" y="2013.59" type="priority" radius="3.50"/>
    <node id="128596127" x="3260.19" y="1701.76" type="priority" radius="3.27"/>
    <node id="128596186" x="3283.40" y="1658.37" type="right_before_left" radius="1.74"/>
    <node id="128647661" x="2861.03" y="512.35" type="priority" radius="11.72"/>
    <node id="128647703" x="2816.54" y="432.82" type="priority" radius="12.00"/>
    <node id="128655728" x="3224.73" y="3570.24" type="priority" radius="12.00"/>
    <node id="128655805" x="2887.08" y="3388.17" type="priority" radius="12.00"/>
    <node id="128661136" x="2400.58" y="3255.42" type="priority" radius="12.00"/>
    <node id="1290310754" x="1568.90" y="2322.85" type="priority"/>
    <node id="1290332365" x="3869.13" y="3417.20" type="right_before_left" radius="12.00"/>
    <node id="1290332408" x="3962.85" y="3822.71" type="priority"/>
    <node id="129970571" x="813.39" y="2756.58" type="priority" radius="2.03"/>
    <node id="1304783790" x="3695.60" y="2948.96" type="priority" radius="12.00"/>
    <node id="1304783843" x="3680.87" y="2833.15" type="priority" radius="1.50"/>
    <node id="1304783967" x="3826.94" y="1801.33" type="priority" radius="1.82"/>
    <node id="1304784100" x="3710.57" y="2968.64" type="priority" radius="1.50"/>
    <node id="1304784165" x="3593.69" y="1972.05" type="traffic_light" tl="1304784165" radius="1.50"/>
    <node id="1304784181" x="3258.29" y="1677.75" type="priority" radius="12.00"/>
    <node id="1304784195" x="3650.99" y="2000.95" type="priority" radius="3.97"/>
    <node id="1304784208" x="3561.20" y="2784.75" type="priority" radius="1.50"/>
    <node id="1304784221" x="3635.20" y="2131.45" type="priority" radius="1.50"/>
    <node id="1304784222" x="3269.79" y="1691.76" type="priority" radius="3.38"/>
    <node id="1304784245" x="3648.63" y="2127.09" type="priority" radius="1.50"/>
    <node id="1304784249" x="3544.64" y="2752.46" type="priority" radius="1.50"/>
    <node id="1304784270" x="3593.13" y="2686.73" type="priority" radius="1.50"/>
    <node id="1304784280" x="3596.23" y="2626.10" type="priority" radius="1.50"/>
    <node id="1304784290" x="3643.99" y="1987.20" type="priority" radius="4.23"/>
    <node id="1304784311" x="3268.07" y="1683.41" type="priority" radius="4.83"/>
    <node id="1304784322" x="3580.64" y="2678.48" type="priority" radius="1.50"/>
    <node id="1304784345" x="3636.56" y="2158.58" type="priority" radius="1.50"/>
    <node id="1304784353" x="3608.78" y="2632.85" type="priority" radius="1.50"/>
    <node id="1304784522" x="3679.83" y="1976.80" type="priority" radius="2.30"/>
    <node id="1304784583" x="3600.17" y="1964.75" type="traffic_light" tl="1304784583" radius="1.50"/>
    <node id="1304784668" x="3684.20" y="2857.76" type="priority" radius="12.00"/>
    <node id="1304784699" x="3721.51" y="2961.57" type="priority" radius="1.50"/>
    <node id="1304784727" x="3465.33" y="1461.78" type="priority" radius="1.50"/>
    <node id="1304784771" x="3706.57" y="2941.94" type="priority" radius="1.50"/>
    <node id="1304784799" x="3649.93" y="2153.33" type="priority" radius="1.50"/>
    <node id="13111692271" x="679.24" y="2300.56" type="priority" radius="12.00"/>
    <node id="13111737117" x="0.00" y="2043.05" type="dead_end"/>
    <node id="1319828836" x="1010.26" y="2998.62" type="right_before_left" radius="12.00"/>
    <node id="1320209667" x="745.16" y="3103.70" type="priority" radius="12.00"/>
    <node id="1320209726" x="792.44" y="2794.28" type="right_before_left" radius="1.86"/>
    <node id="1320209771" x="871.21" y="3221.16" type="right_before_left" radius="12.00"/>
    <node id="1320209789" x="775.82" y="3224.78" type="right_before_left" radius="12.00"/>
    <node id="1320209805" x="893.74" y="3110.42" type="right_before_left" radius="12.00"/>
    <node id="1320209820" x="740.68" y="3304.33" type="priority"/>
    <node id="1320259300" x="1505.90" y="3387.64" type="priority"/>
    <node id="1320259306" x="1582.42" y="3419.73" type="priority"/>
    <node id="1320259375" x="1442.05" y="3326.92" type="right_before_left" radius="12.00"/>
    <node id="1320259524" x="1833.48" y="3601.45" type="right_before_left" radius="12.00"/>
    <node id="1321464624" x="504.38" y="1832.52" type="priority"/>
    <node id="1321464864" x="2086.90" y="2637.36" type="priority"/>
    <node id="1321464939" x="1686.31" y="2492.67" type="right_before_left" radius="12.00"/>
    <node id="1321464996" x="1496.15" y="2045.91" type="right_before_left" radius="12.00"/>
    <node id="1321465066" x="987.73" y="2213.40" type="right_before_left" radius="12.00"/>
    <node id="13391573036" x="3277.53" y="3253.81" type="priority"/>
    <node id="13408839544" x="3629.29" y="3296.89" type="right_before_left" radius="12.00"/>
    <node id="13408839547" x="3646.10" y="3329.29" type="right_before_left" radius="12.00"/>
    <node id="13408839548" x="3634.69" y="3332.00" type="right_before_left" radius="12.00"/>
    <node id="13408839550" x="3616.78" y="3326.98" type="right_before_left" radius="12.00"/>
    <node id="13414451247" x="3600.23" y="437.43" type="priority"/>
    <node id="13626410269" x="2672.24" y="2215.69" type="priority" radius="1.50"/>
    <node id="13649335854" x="3266.83" y="1133.31" type="priority" radius="1.50"/>
    <node id="13649335855" x="3050.01" y="2600.04" type="priority" radius="1.50"/>
    <node id="1422974254" x="731.12" y="2413.42" type="priority"/>
    <node id="1422974336" x="898.61" y="2558.67" type="priority" radius="1.50"/>
    <node id="1422974379" x="1044.67" y="2620.15" type="priority" radius="12.00"/>
    <node id="1422974403" x="815.79" y="2640.55" type="priority"/>
    <node id="1426335783#0-AddedOffRampNode" x="586.32" y="2263.77" type="priority" radius="12.00"/>
    <node id="1426454295" x="2618.29" y="3500.90" type="priority"/>
    <node id="1432641178" x="1337.61" y="2507.64" type="priority"/>
    <node id="1445840705" x="1550.26" y="2088.26" type="priority"/>
    <node id="1445856477" x="2375.70" y="2778.41" type="priority"/>
    <node id="1445856523" x="2241.75" y="2717.06" type="priority"/>
    <node id="1469176777" x="1624.15" y="2182.12" type="priority"/>
    <node id="1469176791" x="2128.72" y="2776.62" type="priority" radius="12.00"/>
    <node id="1471123267" x="2674.89" y="2176.43" type="priority" radius="12.00"/>
    <node id="1471123269" x="2631.78" y="2175.17" type="right_before_left" radius="12.00"/>
    <node id="1471123278" x="2515.93" y="2299.67" type="priority"/>
    <node id="1475241380" x="2565.83" y="3469.05" type="priority"/>
    <node id="1557712866" x="3154.99" y="1200.40" type="priority"/>
    <node id="1557713032" x="3310.23" y="1624.49" type="priority" radius="12.00"/>
    <node id="1601711575" x="3757.24" y="2161.51" type="priority"/>
    <node id="1601711591" x="3935.44" y="1966.43" type="priority" radius="2.18"/>
    <node id="1601711595" x="3938.35" y="1998.88" type="priority"/>
    <node id="1637470907" x="921.81" y="3342.24" type="right_before_left" radius="12.00"/>
    <node id="1637470917" x="811.59" y="3358.81" type="priority"/>
    <node id="1637470959" x="855.81" y="3406.79" type="priority"/>
    <node id="1637470964" x="882.99" y="3420.57" type="right_before_left" radius="12.00"/>
    <node id="1637470965" x="905.71" y="3433.31" type="priority"/>
    <node id="1637523853" x="1321.25" y="2634.03" type="priority" radius="1.50"/>
    <node id="1637523928" x="1099.15" y="2783.89" type="priority"/>
    <node id="1637523982" x="2022.24" y="2848.13" type="priority" radius="10.25"/>
    <node id="1637524244" x="3556.50" y="3615.47" type="priority"/>
    <node id="1638332156" x="3583.01" y="3223.49" type="priority" radius="10.53"/>
    <node id="1638332160" x="3593.94" y="3228.07" type="priority" radius="5.38"/>
    <node id="1638332161" x="3574.66" y="3230.70" type="priority" radius="4.07"/>
    <node id="1638332185" x="3576.17" y="3240.54" type="priority" radius="6.00"/>
    <node id="1638332202" x="3553.54" y="3241.41" type="right_before_left" radius="1.77"/>
    <node id="1674453809" x="3802.63" y="1283.47" type="right_before_left" radius="12.00"/>
    <node id="1674453826" x="4074.25" y="1687.73" type="priority"/>
    <node id="1674453827" x="4092.25" y="1631.96" type="priority"/>
    <node id="1674453837" x="3482.31" y="1417.29" type="right_before_left" radius="10.31"/>
    <node id="1674453838" x="3975.95" y="1308.50" type="priority"/>
    <node id="1674453849" x="3494.21" y="1435.46" type="priority" radius="12.00"/>
    <node id="1674453867" x="3856.56" y="1307.82" type="priority"/>
    <node id="1737296638" x="672.73" y="2574.43" type="priority"/>
    <node id="1806862018" x="3522.04" y="1507.01" type="priority" radius="3.72"/>
    <node id="1922433358" x="2325.60" y="3404.93" type="right_before_left" radius="12.00"/>
    <node id="1922433360" x="2312.31" y="3433.97" type="priority"/>
    <node id="1981679127" x="3355.76" y="2926.44" type="priority" radius="12.00"/>
    <node id="2296412887" x="4216.73" y="3130.75" type="priority"/>
    <node id="2297196420" x="3358.01" y="364.17" type="right_before_left" radius="12.00"/>
    <node id="2297196429" x="3336.74" y="306.10" type="priority"/>
    <node id="2297205834" x="3966.87" y="1163.59" type="priority"/>
    <node id="2341274728" x="3896.53" y="1639.20" type="right_before_left" radius="12.00"/>
    <node id="2341274729" x="3940.60" y="1675.27" type="priority"/>
    <node id="25649013" x="3704.84" y="3800.94" type="dead_end"/>
    <node id="25649024" x="3701.99" y="3651.43" type="priority" radius="1.50"/>
    <node id="25649025" x="3706.28" y="3585.79" type="priority" radius="1.50"/>
    <node id="25649027" x="3668.24" y="3592.38" type="priority" radius="1.50"/>
    <node id="25649041" x="3564.35" y="3558.62" type="priority" radius="1.50"/>
    <node id="257474097" x="3669.49" y="3612.89" type="priority" radius="1.50"/>
    <node id="257474098" x="3686.82" y="3613.52" type="priority" radius="1.50"/>
    <node id="257477770" x="3719.63" y="3523.46" type="priority" radius="1.50"/>
    <node id="257686341" x="1990.85" y="2939.12" type="priority" radius="10.99"/>
    <node id="257686521" x="1957.54" y="2932.87" type="priority" radius="1.50"/>
    <node id="262302896" x="3670.81" y="3654.16" type="priority" radius="1.50"/>
    <node id="263256141" x="1130.87" y="2546.98" type="priority" radius="8.47"/>
    <node id="263256143" x="1144.76" y="2542.83" type="priority" radius="4.90"/>
    <node id="263256144" x="1143.73" y="2554.45" type="priority" radius="3.76"/>
    <node id="263256462" x="784.87" y="2730.46" type="priority" radius="1.50"/>
    <node id="263257091" x="791.75" y="2766.21" type="priority" radius="4.30"/>
    <node id="263257104" x="780.80" y="2770.57" type="priority" radius="3.53"/>
    <node id="263257108" x="790.35" y="2756.39" type="priority" radius="3.92"/>
    <node id="263257109" x="790.83" y="2767.68" type="priority" radius="4.49"/>
    <node id="263258613" x="714.61" y="3204.29" type="priority" radius="12.00"/>
    <node id="263260891" x="2983.22" y="3070.98" type="right_before_left" radius="12.00"/>
    <node id="263261006" x="2379.00" y="2229.33" type="priority"/>
    <node id="2674496041" x="860.82" y="2604.39" type="priority"/>
    <node id="2700542171" x="1213.45" y="2704.27" type="priority"/>
    <node id="2719760568" x="1734.20" y="3534.88" type="priority"/>
    <node id="2723950993" x="1952.51" y="3415.19" type="right_before_left" radius="12.00"/>
    <node id="2723950994" x="1999.31" y="3416.24" type="priority"/>
    <node id="2723951036" x="1966.24" y="3461.51" type="priority"/>
    <node id="2734417334" x="714.61" y="3393.64" type="priority"/>
    <node id="2805551932" x="3579.63" y="3243.62" type="priority" radius="6.19"/>
    <node id="2805551940" x="3590.87" y="3243.26" type="priority" radius="2.35"/>
    <node id="2821358137" x="3891.69" y="3559.97" type="right_before_left" radius="7.60"/>
    <node id="2821358144" x="3968.58" y="3590.13" type="right_before_left" radius="12.00"/>
    <node id="2821358147" x="3900.16" y="3612.13" type="priority"/>
    <node id="2821741118" x="3628.03" y="395.28" type="priority"/>
    <node id="2821741120" x="2759.24" y="380.96" type="priority"/>
    <node id="2821741135" x="3459.33" y="840.36" type="priority"/>
    <node id="2821741148" x="3512.67" y="906.77" type="right_before_left" radius="12.00"/>
    <node id="2821741152" x="3487.77" y="947.48" type="priority"/>
    <node id="2821741154" x="3694.41" y="970.68" type="priority"/>
    <node id="2821741170" x="3639.65" y="1005.17" type="right_before_left" radius="11.24"/>
    <node id="2822339045" x="975.68" y="2125.73" type="priority"/>
    <node id="2926446769" x="1184.97" y="2349.06" type="priority"/>
    <node id="2927037234" x="1618.09" y="2390.35" type="priority"/>
    <node id="2927643316" x="1145.61" y="1767.24" type="priority"/>
    <node id="2928053068" x="1244.50" y="2045.21" type="priority"/>
    <node id="2940743980" x="4135.48" y="3383.38" type="priority"/>
    <node id="2951671158" x="2358.02" y="282.25" type="priority"/>
    <node id="2953026616" x="2733.85" y="496.75" type="right_before_left" radius="12.00"/>
    <node id="2953028434" x="2668.66" y="605.44" type="priority"/>
    <node id="296951099" x="2544.75" y="3549.77" type="right_before_left" radius="12.00"/>
    <node id="296951140" x="2752.18" y="3848.47" type="priority"/>
    <node id="296951724" x="2555.18" y="3615.53" type="right_before_left" radius="12.00"/>
    <node id="296952007" x="2484.60" y="3627.38" type="priority" radius="5.54"/>
    <node id="296952021" x="2572.29" y="3715.99" type="priority"/>
    <node id="298284831" x="3363.75" y="918.14" type="priority" radius="12.00"/>
    <node id="298431784" x="3947.31" y="2472.08" type="priority"/>
    <node id="298433383" x="2316.44" y="357.56" type="priority"/>
    <node id="298434217" x="2412.54" y="0.00" type="priority"/>
    <node id="298434627" x="3005.56" y="484.16" type="priority"/>
    <node id="298435985" x="2982.71" y="33.73" type="priority"/>
    <node id="298436259" x="3438.76" y="350.19" type="right_before_left" radius="11.15"/>
    <node id="298436264" x="3420.60" y="397.24" type="right_before_left" radius="9.81"/>
    <node id="298436282" x="3666.56" y="558.11" type="priority"/>
    <node id="298437252" x="2900.24" y="169.05" type="priority"/>
    <node id="298441553" x="1336.56" y="1971.98" type="right_before_left" radius="12.00"/>
    <node id="298441929" x="837.20" y="2389.88" type="priority" radius="12.00"/>
    <node id="298442840" x="735.05" y="2211.10" type="priority"/>
    <node id="298442851" x="807.49" y="2030.51" type="priority" radius="1.50"/>
    <node id="298719930" x="1090.47" y="2844.57" type="priority" radius="12.00"/>
    <node id="298721386" x="2017.85" y="2798.96" type="right_before_left" radius="12.00"/>
    <node id="312012682" x="937.29" y="2186.39" type="right_before_left" radius="10.67"/>
    <node id="312012975" x="815.34" y="2021.73" type="right_before_left" radius="12.00"/>
    <node id="312012992" x="873.82" y="1796.59" type="right_before_left" radius="12.00"/>
    <node id="315548349" x="3570.47" y="3307.35" type="priority" radius="12.00"/>
    <node id="315548351" x="3532.77" y="3444.72" type="priority"/>
    <node id="315548453" x="3543.27" y="3403.44" type="right_before_left" radius="12.00"/>
    <node id="315548602" x="3403.89" y="3287.67" type="priority" radius="12.00"/>
    <node id="315551144" x="3807.62" y="3386.03" type="right_before_left" radius="11.73"/>
    <node id="315551150" x="3774.06" y="3576.78" type="right_before_left" radius="12.00"/>
    <node id="315551212" x="3775.58" y="3530.67" type="right_before_left" radius="11.93"/>
    <node id="315552562" x="3699.97" y="3508.06" type="priority"/>
    <node id="315553553" x="4054.03" y="3267.89" type="right_before_left" radius="7.58"/>
    <node id="315553766" x="4052.60" y="3359.37" type="right_before_left" radius="12.00"/>
    <node id="315554217" x="4182.81" y="3823.06" type="priority"/>
    <node id="315557620" x="3974.91" y="3488.35" type="right_before_left" radius="9.06"/>
    <node id="319254250" x="3403.83" y="3489.43" type="priority" radius="1.50"/>
    <node id="319254543" x="3704.26" y="3518.25" type="priority" radius="1.50"/>
    <node id="3200088764" x="3808.83" y="3143.47" type="priority" radius="12.00"/>
    <node id="3200088787" x="3764.36" y="3217.55" type="priority" radius="1.50"/>
    <node id="3200088797" x="3595.02" y="3238.24" type="priority" radius="5.60"/>
    <node id="3200088810" x="3783.64" y="3319.77" type="priority" radius="12.00"/>
    <node id="3200088813" x="3798.12" y="3327.66" type="priority" radius="12.00"/>
    <node id="3200088830" x="3516.63" y="3534.99" type="priority" radius="12.00"/>
    <node id="3200088842" x="3722.31" y="3598.42" type="priority" radius="1.50"/>
    <node id="3200088961" x="3660.05" y="3623.24" type="priority" radius="1.50"/>
    <node id="3220797452" x="2433.83" y="3497.53" type="priority" radius="10.88"/>
    <node id="3220797459" x="2427.98" y="3502.76" type="priority" radius="10.05"/>
    <node id="3220797460" x="2439.00" y="3503.86" type="priority" radius="10.09"/>
    <node id="3220805169" x="2930.30" y="3625.32" type="priority" radius="1.50"/>
    <node id="3220805170" x="3551.58" y="3794.58" type="priority"/>
    <node id="3238702649" x="1302.39" y="2612.90" type="priority" radius="1.89"/>
    <node id="3245043288" x="2830.30" y="479.62" type="priority" radius="1.50"/>
    <node id="3245043553" x="3820.20" y="1714.06" type="priority" radius="1.60"/>
    <node id="336696788" x="761.50" y="2294.14" type="dead_end"/>
    <node id="336696819" x="1059.57" y="2578.60" type="priority"/>
    <node id="337982410" x="645.07" y="1544.83" type="priority"/>
    <node id="337982421" x="889.16" y="1613.13" type="priority" radius="12.00"/>
    <node id="337982430" x="920.22" y="1732.36" type="right_before_left" radius="12.00"/>
    <node id="337983355" x="769.93" y="1660.27" type="priority"/>
    <node id="337983359" x="827.90" y="1561.26" type="priority" radius="12.00"/>
    <node id="337983504" x="823.84" y="1724.55" type="priority"/>
    <node id="337984980" x="1026.85" y="1782.48" type="priority"/>
    <node id="338429088" x="1298.58" y="1817.03" type="priority"/>
    <node id="3401965241" x="3614.64" y="3301.09" type="right_before_left" radius="12.00"/>
    <node id="3458052603" x="1291.34" y="2588.12" type="priority" radius="5.88"/>
    <node id="3458052620" x="1282.03" y="2600.35" type="priority" radius="4.27"/>
    <node id="3458052627" x="1273.85" y="2577.45" type="priority" radius="4.00"/>
    <node id="3458052633" x="1266.89" y="2589.07" type="priority" radius="4.10"/>
    <node id="3458052640" x="1290.85" y="2591.94" type="priority" radius="4.49"/>
    <node id="3463019376" x="2838.15" y="3727.08" type="priority"/>
    <node id="3464765622" x="1979.14" y="2950.53" type="priority" radius="3.30"/>
    <node id="3466009396" x="1587.01" y="3729.56" type="priority"/>
    <node id="354920644" x="2795.54" y="3329.19" type="priority" radius="12.00"/>
    <node id="3759480557" x="2409.99" y="1688.17" type="priority"/>
    <node id="3890653967" x="2664.93" y="3525.22" type="priority" radius="1.50"/>
    <node id="3890967742" x="1153.36" y="2489.40" type="priority" radius="1.50"/>
    <node id="3890967776" x="1131.59" y="2551.66" type="priority" radius="2.65"/>
    <node id="3890967779" x="1168.17" y="2555.23" type="priority" radius="1.65"/>
    <node id="3890967780" x="1140.69" y="2555.92" type="priority" radius="3.50"/>
    <node id="3890967809" x="1243.08" y="2571.96" type="priority" radius="2.09"/>
    <node id="3890967816" x="1126.86" y="2574.70" type="priority" radius="1.67"/>
    <node id="3891599249" x="3577.47" y="3201.17" type="priority" radius="12.00"/>
    <node id="4040968425" x="3968.62" y="1887.90" type="priority" radius="1.50"/>
    <node id="4040968427" x="3930.46" y="1935.16" type="priority" radius="5.25"/>
    <node id="4040971242" x="3330.92" y="2954.73" type="priority" radius="1.50"/>
    <node id="4040971246" x="3326.44" y="2962.43" type="priority"/>
    <node id="4040971345" x="3357.44" y="3174.68" type="priority"/>
    <node id="4041045897" x="3790.49" y="1846.68" type="priority" radius="11.92"/>
    <node id="4041045901" x="3886.52" y="1924.98" type="priority" radius="2.42"/>
    <node id="4041045907" x="3912.45" y="1939.16" type="priority" radius="3.47"/>
    <node id="4041045909" x="3918.53" y="1940.30" type="priority" radius="6.57"/>
    <node id="4041045911" x="3923.14" y="1947.19" type="priority" radius="4.28"/>
    <node id="4041045912" x="3904.60" y="1947.00" type="priority" radius="4.88"/>
    <node id="4041045913" x="3923.03" y="1950.14" type="priority" radius="5.05"/>
    <node id="4041045915" x="3906.46" y="1954.18" type="priority" radius="6.03"/>
    <node id="4041045916" x="3917.39" y="1956.98" type="priority" radius="5.11"/>
    <node id="4041045917" x="3912.97" y="1957.63" type="priority" radius="6.09"/>
    <node id="431369261" x="3219.62" y="1103.03" type="right_before_left" radius="12.00"/>
    <node id="431369267" x="2890.04" y="1098.78" type="right_before_left" radius="12.00"/>
    <node id="431369274" x="2284.77" y="609.26" type="right_before_left" radius="7.86"/>
    <node id="431369291" x="3864.22" y="3180.82" type="priority"/>
    <node id="431369317" x="2975.89" y="1194.57" type="priority" radius="12.00"/>
    <node id="431369322" x="3517.90" y="358.63" type="right_before_left" radius="12.00"/>
    <node id="431369324" x="3549.53" y="340.74" type="right_before_left" radius="12.00"/>
    <node id="431369329" x="3978.94" y="3754.65" type="priority"/>
    <node id="4612824993" x="3733.48" y="2998.42" type="priority" radius="12.00"/>
    <node id="4612824994" x="3619.77" y="2849.30" type="priority" radius="12.00"/>
    <node id="4618947771" x="1386.17" y="2563.31" type="dead_end"/>
    <node id="4618947772" x="1334.91" y="2547.51" type="dead_end"/>
    <node id="4618947773" x="1276.53" y="2546.71" type="priority" radius="12.00"/>
    <node id="4623849596" x="3615.29" y="2821.24" type="priority" radius="12.00"/>
    <node id="466134866#1-AddedOnRampNode" x="3627.83" y="3617.73" type="priority" radius="12.00"/>