<?xml version='1.0' encoding='utf-8'?>
<additional>
  <tlLogic id="672550027" type="static" programID="custom" offset="0">
    <phase duration="35" state="GGGGrrrrr" />
    <phase duration="3" state="yyyyrrrrr" />
    <phase duration="2" state="rrrrrrrrr" />
    <phase duration="25" state="rrrrGGrrr" />
    <phase duration="3" state="rrrryyrrr" />
    <phase duration="2" state="rrrrrrrrr" />
    <phase duration="15" state="rrrrrrGGG" />
    <phase duration="3" state="rrrrrrrrr" />
    <phase duration="2" state="rrrrrrrrr" />
  </tlLogic>
</additional>